gem5 Simulator System.  http://gem5.org
gem5 is copyrighted software; use the --copyright option for details.

gem5 compiled Sep  7 2022 07:15:41
gem5 started Nov  6 2022 20:30:44
gem5 executing on 1e46d1a579d1, pid 545
command line: /workspace/gem5-aladdin/src/aladdin/../../build/X86/gem5.opt --debug-flags=Aladdin,HybridDatapath --outdir=/workspace/smaug/experiments/sims/smaug_tests/tests/minerva-sys/outputs --stats-db-file=stats.db /workspace/gem5-aladdin/src/aladdin/../../configs/aladdin/aladdin_se.py --num-cpus=1 --mem-size=4GB --mem-type=LPDDR4_3200_2x16 --cpu-clock=2.5GHz --cpu-type=DerivO3CPU --ruby --access-backing-store --mem-channels=4 --l1d_size=64kB --l1i_size=64kB --l1d_assoc=4 --l1i_assoc=4 --l1d_hit_latency=2 --l1i_hit_latency=2 --l2_hit_latency=20 --l2_size=2MB --l2_assoc=16 --cacheline_size=32 --accel_cfg_file=gem5.cfg --fast-forward=10000000000 -c /workspace/smaug/experiments/../build/bin/smaug -o '/workspace/smaug/experiments/models/minerva/minerva_smv_topo.pbtxt /workspace/smaug/experiments/models/minerva/minerva_smv_params.pb --sample-level=high --gem5 --debug-level=0 --num-accels=1 --use-systolic-array'

Global frequency set at 1000000000000 ticks per second
-------------------------------
      Setting ScratchPad       
-------------------------------
      0: system: Registered accelerator 3
      0: system: Registered accelerator 4
      0: system.acc0_datapath: Registering stats.
Switch at instruction count:10000000000
Model topology file: /workspace/smaug/experiments/models/minerva/minerva_smv_topo.pbtxt
Model parameters file: /workspace/smaug/experiments/models/minerva/minerva_smv_params.pb
Sampling level: high, number of sample iterations: 1
Number of accelerators: 1
======================================================
      Loading the network model...
======================================================
Adding data (Data).
Adding reorder (Reorder).
Adding data_1 (Data).
Adding mat_mul (InnerProduct).
Adding data_2 (Data).
Adding mat_mul_1 (InnerProduct).
Adding data_3 (Data).
Adding mat_mul_2 (InnerProduct).
Adding data_4 (Data).
Adding mat_mul_3 (InnerProduct).
======================================================
      Summary of the network.
======================================================
____________________________________________________________________________________________
Layer (type)                             Output shape                 Parameters  
____________________________________________________________________________________________
data_4 (Data)                            (10, 256)                        0       
____________________________________________________________________________________________
data_3 (Data)                            (256, 256)                       0       
____________________________________________________________________________________________
data_2 (Data)                            (256, 256)                       0       
____________________________________________________________________________________________
data_1 (Data)                            (256, 784)                       0       
____________________________________________________________________________________________
data (Data)                              (1, 28, 28, 1)                   0       
____________________________________________________________________________________________
reorder (Reorder)                        (1, 784)                         0       
____________________________________________________________________________________________
mat_mul (InnerProduct)                   (1, 256)                       200704    
____________________________________________________________________________________________
mat_mul_1 (InnerProduct)                 (1, 256)                       65536     
____________________________________________________________________________________________
mat_mul_2 (InnerProduct)                 (1, 256)                       65536     
____________________________________________________________________________________________
mat_mul_3 (InnerProduct)                 (1, 10)                         2560     
____________________________________________________________________________________________
======================================================
      Tiling operators of the network...
======================================================
Tiling data (Data).
Tiling data_1 (Data).
Tiling data_2 (Data).
Tiling data_3 (Data).
Tiling data_4 (Data).
Tiling mat_mul (InnerProduct).
Tiling mat_mul_1 (InnerProduct).
Tiling mat_mul_2 (InnerProduct).
Tiling mat_mul_3 (InnerProduct).
Tiling reorder (Reorder).
Switched CPUS @ tick 50078186000
switching cpus
**** REAL SIMULATION ****
======================================================
      Scheduling operators of the network...
======================================================
Scheduling data (Data).
Scheduling data_1 (Data).
Scheduling data_2 (Data).
Scheduling data_3 (Data).
Scheduling data_4 (Data).
Scheduling reorder (Reorder).
Scheduling mat_mul (InnerProduct).
50182039000: system.acc0_datapath: Setting host_a to memory type dma.
50182153000: system.acc0_datapath: Setting host_b to memory type dma.
50182194000: system.acc0_datapath: Setting host_results to memory type dma.
50186025000: system.acc0_datapath: Inserting array label mapping host_results -> vpn 0x3a6760, size 512.
50186025000: system.acc0_datapath: Mapping vaddr 0x3a6760 -> paddr 0x1ab6760.
50186025000: system.acc0_datapath: Inserting TLB entry vpn 0x3a6000 -> ppn 0x1ab6000.
50188841000: system.acc0_datapath: Inserting array label mapping host_a -> vpn 0x3a5e40, size 1568.
50188841000: system.acc0_datapath: Mapping vaddr 0x3a5e40 -> paddr 0x1ab5e40.
50188841000: system.acc0_datapath: Inserting TLB entry vpn 0x3a5000 -> ppn 0x1ab5000.
50188841000: system.acc0_datapath: Mapping vaddr 0x3a6e40 -> paddr 0x1ab6e40.
50188841000: system.acc0_datapath: Inserting TLB entry vpn 0x3a6000 -> ppn 0x1ab6000.
50190487000: system.acc0_datapath: Inserting array label mapping host_b -> vpn 0x3e4dc0, size 25088.
50190487000: system.acc0_datapath: Mapping vaddr 0x3e4dc0 -> paddr 0x1bd7dc0.
50190487000: system.acc0_datapath: Inserting TLB entry vpn 0x3e4000 -> ppn 0x1bd7000.
50190487000: system.acc0_datapath: Mapping vaddr 0x3e5dc0 -> paddr 0x1bd8dc0.
50190487000: system.acc0_datapath: Inserting TLB entry vpn 0x3e5000 -> ppn 0x1bd8000.
50190487000: system.acc0_datapath: Mapping vaddr 0x3e6dc0 -> paddr 0x1bd9dc0.
50190487000: system.acc0_datapath: Inserting TLB entry vpn 0x3e6000 -> ppn 0x1bd9000.
50190487000: system.acc0_datapath: Mapping vaddr 0x3e7dc0 -> paddr 0x1bdadc0.
50190487000: system.acc0_datapath: Inserting TLB entry vpn 0x3e7000 -> ppn 0x1bda000.
50190487000: system.acc0_datapath: Mapping vaddr 0x3e8dc0 -> paddr 0x1bdbdc0.
50190487000: system.acc0_datapath: Inserting TLB entry vpn 0x3e8000 -> ppn 0x1bdb000.
50190487000: system.acc0_datapath: Mapping vaddr 0x3e9dc0 -> paddr 0x1bdcdc0.
50190487000: system.acc0_datapath: Inserting TLB entry vpn 0x3e9000 -> ppn 0x1bdc000.
50190487000: system.acc0_datapath: Mapping vaddr 0x3eadc0 -> paddr 0x1bdddc0.
50190487000: system.acc0_datapath: Inserting TLB entry vpn 0x3ea000 -> ppn 0x1bdd000.
50191760000: system.acc0_datapath: Activating accelerator id 3
-------------------------------
      Generating DDDG          
-------------------------------
-------------------------------
Num of Nodes: 108610
Num of Edges: 267418
Num of Reg Edges: 143955
Num of MEM Edges: 14860
Num of Control Edges: 108609
-------------------------------
-------------------------------
    Initializing BaseDatapath      
-------------------------------
 Top level: smv_matrix_multiply_transpose_nc_vec_fxp
=============================================
      Optimizing...            ./outputs/nnet_fwd
=============================================
-------------------------------
  Remove PHI and Convert Nodes 
-------------------------------
  Removing 88444 edges.
  Adding 60323 new edges.
  Removing 951 isolated nodes.
-------------------------------
  Remove Induction Dependence  
-------------------------------
-------------------------------
       Init Base Address       
-------------------------------
-------------------------------
     Init DMA Base Address     
-------------------------------
-------------------------------
        Mem to Reg Conv        
-------------------------------
-------------------------------
      ScratchPad Partition     
-------------------------------
-------------------------------
         Loop Flatten          
-------------------------------
  Removing 11146 isolated nodes.
  Removing 0 isolated nodes.
-------------------------------
         Loop Unrolling        
-------------------------------
  Adding 177114 new edges.
  Removing 1458 isolated nodes.
  Removing 0 isolated nodes.
-------------------------------
          Load Buffer          
-------------------------------
  Adding 1400 new edges.
  Removing 8400 edges.
  Removing 0 isolated nodes.
-------------------------------
          Store Buffer         
-------------------------------
  Adding 12664 new edges.
  Removing 3764 isolated nodes.
  Removing 0 isolated nodes.
-------------------------------
    Remove Repeated Stores     
-------------------------------
-------------------------------
      Memory Ambiguation       
-------------------------------
  Adding 6 new edges.
-------------------------------
     Tree Height Reduction     
-------------------------------
  Removing 8000 edges.
  Adding 8000 new edges.
  Removing 0 isolated nodes.
-------------------------------
  Fuse register loads/stores   
-------------------------------
  Removing 8439 edges.
  Adding 8439 new edges.
  Removing 0 isolated nodes.
-------------------------------
   Fuse consecutive branches   
-------------------------------
  Removing 11147 edges.
  Adding 11147 new edges.
  Removing 0 isolated nodes.
-------------------------------
      Per Loop Pipelining      
-------------------------------
  Adding 78808 new edges.
  Removing 79883 edges.
  Removing 0 isolated nodes.
-------------------------------
         Loop Pipelining        
-------------------------------
=============================================
      Scheduling...            ./outputs/nnet_fwd
=============================================
  Total connected nodes: 82839
  Total edges: 346659
=============================================
50191769000: system.acc0_datapath: Scheduling DMA load operation with node id 70 with delay 588000
50192357000: system.acc0_datapath: Adding DMA node 70 to DMA issue queue.
50192357000: system.acc0_datapath: issueDmaRequest: src_addr: 0x1705a40, dst_addr: 0x170f800, size: 1568
50192357000: system.acc0_datapath: DMA Accesses: array label a
50192357000: system.acc0_datapath: Increment the dmaLoad accesses of partition a with size 1568. 
50192395501: system.acc0_datapath: Receiving DMA response for node 70, address 0x170f800 with label a and size 32.
50192397001: system.acc0_datapath: Receiving DMA response for node 70, address 0x170f820 with label a and size 32.
50192398501: system.acc0_datapath: Receiving DMA response for node 70, address 0x170f840 with label a and size 32.
50192400001: system.acc0_datapath: Receiving DMA response for node 70, address 0x170f860 with label a and size 32.
50192403001: system.acc0_datapath: Receiving DMA response for node 70, address 0x170f880 with label a and size 32.
50192404501: system.acc0_datapath: Receiving DMA response for node 70, address 0x170f8a0 with label a and size 32.
50192406001: system.acc0_datapath: Receiving DMA response for node 70, address 0x170f8c0 with label a and size 32.
50192407501: system.acc0_datapath: Receiving DMA response for node 70, address 0x170f8e0 with label a and size 32.
50192412001: system.acc0_datapath: Receiving DMA response for node 70, address 0x170f900 with label a and size 32.
50192413501: system.acc0_datapath: Receiving DMA response for node 70, address 0x170f920 with label a and size 32.
50192415001: system.acc0_datapath: Receiving DMA response for node 70, address 0x170f940 with label a and size 32.
50192416501: system.acc0_datapath: Receiving DMA response for node 70, address 0x170f960 with label a and size 32.
50192418001: system.acc0_datapath: Receiving DMA response for node 70, address 0x170f980 with label a and size 32.
50192419501: system.acc0_datapath: Receiving DMA response for node 70, address 0x170f9a0 with label a and size 32.
50192421001: system.acc0_datapath: Receiving DMA response for node 70, address 0x170f9c0 with label a and size 32.
50192423001: system.acc0_datapath: Receiving DMA response for node 70, address 0x170f9e0 with label a and size 32.
50192434501: system.acc0_datapath: Receiving DMA response for node 70, address 0x170fa00 with label a and size 32.
50192437501: system.acc0_datapath: Receiving DMA response for node 70, address 0x170fa20 with label a and size 32.
50192448501: system.acc0_datapath: Receiving DMA response for node 70, address 0x170fa40 with label a and size 32.
50192450001: system.acc0_datapath: Receiving DMA response for node 70, address 0x170fa60 with label a and size 32.
50192451501: system.acc0_datapath: Receiving DMA response for node 70, address 0x170fa80 with label a and size 32.
50192453001: system.acc0_datapath: Receiving DMA response for node 70, address 0x170faa0 with label a and size 32.
50192454501: system.acc0_datapath: Receiving DMA response for node 70, address 0x170fac0 with label a and size 32.
50192456001: system.acc0_datapath: Receiving DMA response for node 70, address 0x170fae0 with label a and size 32.
50192457501: system.acc0_datapath: Receiving DMA response for node 70, address 0x170fb00 with label a and size 32.
50192459001: system.acc0_datapath: Receiving DMA response for node 70, address 0x170fb20 with label a and size 32.
50192460501: system.acc0_datapath: Receiving DMA response for node 70, address 0x170fb40 with label a and size 32.
50192467501: system.acc0_datapath: Receiving DMA response for node 70, address 0x170fb60 with label a and size 32.
50192469001: system.acc0_datapath: Receiving DMA response for node 70, address 0x170fb80 with label a and size 32.
50192470501: system.acc0_datapath: Receiving DMA response for node 70, address 0x170fba0 with label a and size 32.
50192472001: system.acc0_datapath: Receiving DMA response for node 70, address 0x170fbc0 with label a and size 32.
50192473501: system.acc0_datapath: Receiving DMA response for node 70, address 0x170fbe0 with label a and size 32.
50192488001: system.acc0_datapath: Receiving DMA response for node 70, address 0x170fc00 with label a and size 32.
50192489501: system.acc0_datapath: Receiving DMA response for node 70, address 0x170fc20 with label a and size 32.
50192491001: system.acc0_datapath: Receiving DMA response for node 70, address 0x170fc40 with label a and size 32.
50192492501: system.acc0_datapath: Receiving DMA response for node 70, address 0x170fc60 with label a and size 32.
50192494001: system.acc0_datapath: Receiving DMA response for node 70, address 0x170fc80 with label a and size 32.
50192495501: system.acc0_datapath: Receiving DMA response for node 70, address 0x170fca0 with label a and size 32.
50192503001: system.acc0_datapath: Receiving DMA response for node 70, address 0x170fcc0 with label a and size 32.
50192504501: system.acc0_datapath: Receiving DMA response for node 70, address 0x170fce0 with label a and size 32.
50192506001: system.acc0_datapath: Receiving DMA response for node 70, address 0x170fd00 with label a and size 32.
50192507501: system.acc0_datapath: Receiving DMA response for node 70, address 0x170fd20 with label a and size 32.
50192509001: system.acc0_datapath: Receiving DMA response for node 70, address 0x170fd40 with label a and size 32.
50192510501: system.acc0_datapath: Receiving DMA response for node 70, address 0x170fd60 with label a and size 32.
50192519001: system.acc0_datapath: Receiving DMA response for node 70, address 0x170fd80 with label a and size 32.
50192520501: system.acc0_datapath: Receiving DMA response for node 70, address 0x170fda0 with label a and size 32.
50192522001: system.acc0_datapath: Receiving DMA response for node 70, address 0x170fdc0 with label a and size 32.
50192523501: system.acc0_datapath: Receiving DMA response for node 70, address 0x170fde0 with label a and size 32.
50192532001: system.acc0_datapath: Receiving DMA response for node 70, address 0x170fe00 with label a and size 32.
50192532001: system.acc0_datapath: dmaCompleteCallback for node 70.
50192689000: system.acc0_datapath: Scheduling DMA load operation with node id 1215 with delay 1536000
50194225000: system.acc0_datapath: Adding DMA node 1215 to DMA issue queue.
50194225000: system.acc0_datapath: issueDmaRequest: src_addr: 0x173f920, dst_addr: 0x171f860, size: 4096
50194225000: system.acc0_datapath: DMA Accesses: array label b
50194225000: system.acc0_datapath: Increment the dmaLoad accesses of partition b with size 4096. 
50194296501: system.acc0_datapath: Receiving DMA response for node 1215, address 0x171f860 with label b and size 32.
50194301501: system.acc0_datapath: Receiving DMA response for node 1215, address 0x171f880 with label b and size 32.
50194306501: system.acc0_datapath: Receiving DMA response for node 1215, address 0x171f8a0 with label b and size 32.
50194311501: system.acc0_datapath: Receiving DMA response for node 1215, address 0x171f8c0 with label b and size 32.
50194316501: system.acc0_datapath: Receiving DMA response for node 1215, address 0x171f8e0 with label b and size 32.
50194321501: system.acc0_datapath: Receiving DMA response for node 1215, address 0x171f900 with label b and size 32.
50194326501: system.acc0_datapath: Receiving DMA response for node 1215, address 0x171f920 with label b and size 32.
50194331501: system.acc0_datapath: Receiving DMA response for node 1215, address 0x171f940 with label b and size 32.
50194336501: system.acc0_datapath: Receiving DMA response for node 1215, address 0x171f960 with label b and size 32.
50194341501: system.acc0_datapath: Receiving DMA response for node 1215, address 0x171f980 with label b and size 32.
50194346501: system.acc0_datapath: Receiving DMA response for node 1215, address 0x171f9a0 with label b and size 32.
50194351501: system.acc0_datapath: Receiving DMA response for node 1215, address 0x171f9c0 with label b and size 32.
50194356501: system.acc0_datapath: Receiving DMA response for node 1215, address 0x171f9e0 with label b and size 32.
50194361501: system.acc0_datapath: Receiving DMA response for node 1215, address 0x171fa00 with label b and size 32.
50194366501: system.acc0_datapath: Receiving DMA response for node 1215, address 0x171fa20 with label b and size 32.
50194371501: system.acc0_datapath: Receiving DMA response for node 1215, address 0x171fa40 with label b and size 32.
50194415001: system.acc0_datapath: Receiving DMA response for node 1215, address 0x171fa60 with label b and size 32.
50194420001: system.acc0_datapath: Receiving DMA response for node 1215, address 0x171fa80 with label b and size 32.
50194426501: system.acc0_datapath: Receiving DMA response for node 1215, address 0x171faa0 with label b and size 32.
50194431501: system.acc0_datapath: Receiving DMA response for node 1215, address 0x171fac0 with label b and size 32.
50194436501: system.acc0_datapath: Receiving DMA response for node 1215, address 0x171fae0 with label b and size 32.
50194441501: system.acc0_datapath: Receiving DMA response for node 1215, address 0x171fb00 with label b and size 32.
50194446501: system.acc0_datapath: Receiving DMA response for node 1215, address 0x171fb20 with label b and size 32.
50194451501: system.acc0_datapath: Receiving DMA response for node 1215, address 0x171fb40 with label b and size 32.
50194456501: system.acc0_datapath: Receiving DMA response for node 1215, address 0x171fb60 with label b and size 32.
50194461501: system.acc0_datapath: Receiving DMA response for node 1215, address 0x171fb80 with label b and size 32.
50194466501: system.acc0_datapath: Receiving DMA response for node 1215, address 0x171fba0 with label b and size 32.
50194471501: system.acc0_datapath: Receiving DMA response for node 1215, address 0x171fbc0 with label b and size 32.
50194476501: system.acc0_datapath: Receiving DMA response for node 1215, address 0x171fbe0 with label b and size 32.
50194481501: system.acc0_datapath: Receiving DMA response for node 1215, address 0x171fc00 with label b and size 32.
50194486501: system.acc0_datapath: Receiving DMA response for node 1215, address 0x171fc20 with label b and size 32.
50194491501: system.acc0_datapath: Receiving DMA response for node 1215, address 0x171fc40 with label b and size 32.
50194496501: system.acc0_datapath: Receiving DMA response for node 1215, address 0x171fc60 with label b and size 32.
50194501501: system.acc0_datapath: Receiving DMA response for node 1215, address 0x171fc80 with label b and size 32.
50194545001: system.acc0_datapath: Receiving DMA response for node 1215, address 0x171fca0 with label b and size 32.
50194550001: system.acc0_datapath: Receiving DMA response for node 1215, address 0x171fcc0 with label b and size 32.
50194555001: system.acc0_datapath: Receiving DMA response for node 1215, address 0x171fce0 with label b and size 32.
50194560001: system.acc0_datapath: Receiving DMA response for node 1215, address 0x171fd00 with label b and size 32.
50194565001: system.acc0_datapath: Receiving DMA response for node 1215, address 0x171fd20 with label b and size 32.
50194570001: system.acc0_datapath: Receiving DMA response for node 1215, address 0x171fd40 with label b and size 32.
50194575001: system.acc0_datapath: Receiving DMA response for node 1215, address 0x171fd60 with label b and size 32.
50194580001: system.acc0_datapath: Receiving DMA response for node 1215, address 0x171fd80 with label b and size 32.
50194585001: system.acc0_datapath: Receiving DMA response for node 1215, address 0x171fda0 with label b and size 32.
50194590001: system.acc0_datapath: Receiving DMA response for node 1215, address 0x171fdc0 with label b and size 32.
50194595001: system.acc0_datapath: Receiving DMA response for node 1215, address 0x171fde0 with label b and size 32.
50194600001: system.acc0_datapath: Receiving DMA response for node 1215, address 0x171fe00 with label b and size 32.
50194605001: system.acc0_datapath: Receiving DMA response for node 1215, address 0x171fe20 with label b and size 32.
50194610001: system.acc0_datapath: Receiving DMA response for node 1215, address 0x171fe40 with label b and size 32.
50194615001: system.acc0_datapath: Receiving DMA response for node 1215, address 0x171fe60 with label b and size 32.
50194620001: system.acc0_datapath: Receiving DMA response for node 1215, address 0x171fe80 with label b and size 32.
50194663501: system.acc0_datapath: Receiving DMA response for node 1215, address 0x171fea0 with label b and size 32.
50194668501: system.acc0_datapath: Receiving DMA response for node 1215, address 0x171fec0 with label b and size 32.
50194673501: system.acc0_datapath: Receiving DMA response for node 1215, address 0x171fee0 with label b and size 32.
50194678501: system.acc0_datapath: Receiving DMA response for node 1215, address 0x171ff00 with label b and size 32.
50194683501: system.acc0_datapath: Receiving DMA response for node 1215, address 0x171ff20 with label b and size 32.
50194688501: system.acc0_datapath: Receiving DMA response for node 1215, address 0x171ff40 with label b and size 32.
50194693501: system.acc0_datapath: Receiving DMA response for node 1215, address 0x171ff60 with label b and size 32.
50194698501: system.acc0_datapath: Receiving DMA response for node 1215, address 0x171ff80 with label b and size 32.
50194703501: system.acc0_datapath: Receiving DMA response for node 1215, address 0x171ffa0 with label b and size 32.
50194708501: system.acc0_datapath: Receiving DMA response for node 1215, address 0x171ffc0 with label b and size 32.
50194713501: system.acc0_datapath: Receiving DMA response for node 1215, address 0x171ffe0 with label b and size 32.
50194718501: system.acc0_datapath: Receiving DMA response for node 1215, address 0x1720000 with label b and size 32.
50194723501: system.acc0_datapath: Receiving DMA response for node 1215, address 0x1720020 with label b and size 32.
50194728501: system.acc0_datapath: Receiving DMA response for node 1215, address 0x1720040 with label b and size 32.
50194733501: system.acc0_datapath: Receiving DMA response for node 1215, address 0x1720060 with label b and size 32.
50194738501: system.acc0_datapath: Receiving DMA response for node 1215, address 0x1720080 with label b and size 32.
50194782001: system.acc0_datapath: Receiving DMA response for node 1215, address 0x17200a0 with label b and size 32.
50194787001: system.acc0_datapath: Receiving DMA response for node 1215, address 0x17200c0 with label b and size 32.
50194792001: system.acc0_datapath: Receiving DMA response for node 1215, address 0x17200e0 with label b and size 32.
50194797001: system.acc0_datapath: Receiving DMA response for node 1215, address 0x1720100 with label b and size 32.
50194802001: system.acc0_datapath: Receiving DMA response for node 1215, address 0x1720120 with label b and size 32.
50194807001: system.acc0_datapath: Receiving DMA response for node 1215, address 0x1720140 with label b and size 32.
50194812001: system.acc0_datapath: Receiving DMA response for node 1215, address 0x1720160 with label b and size 32.
50194817001: system.acc0_datapath: Receiving DMA response for node 1215, address 0x1720180 with label b and size 32.
50194822001: system.acc0_datapath: Receiving DMA response for node 1215, address 0x17201a0 with label b and size 32.
50194827001: system.acc0_datapath: Receiving DMA response for node 1215, address 0x17201c0 with label b and size 32.
50194832001: system.acc0_datapath: Receiving DMA response for node 1215, address 0x17201e0 with label b and size 32.
50194837001: system.acc0_datapath: Receiving DMA response for node 1215, address 0x1720200 with label b and size 32.
50194842001: system.acc0_datapath: Receiving DMA response for node 1215, address 0x1720220 with label b and size 32.
50194847001: system.acc0_datapath: Receiving DMA response for node 1215, address 0x1720240 with label b and size 32.
50195070501: system.acc0_datapath: Receiving DMA response for node 1215, address 0x1720260 with label b and size 32.
50195075501: system.acc0_datapath: Receiving DMA response for node 1215, address 0x1720280 with label b and size 32.
50195080501: system.acc0_datapath: Receiving DMA response for node 1215, address 0x17202a0 with label b and size 32.
50195085501: system.acc0_datapath: Receiving DMA response for node 1215, address 0x17202c0 with label b and size 32.
50195090501: system.acc0_datapath: Receiving DMA response for node 1215, address 0x17202e0 with label b and size 32.
50195095501: system.acc0_datapath: Receiving DMA response for node 1215, address 0x1720300 with label b and size 32.
50195100501: system.acc0_datapath: Receiving DMA response for node 1215, address 0x1720320 with label b and size 32.
50195105501: system.acc0_datapath: Receiving DMA response for node 1215, address 0x1720340 with label b and size 32.
50195110501: system.acc0_datapath: Receiving DMA response for node 1215, address 0x1720360 with label b and size 32.
50195115501: system.acc0_datapath: Receiving DMA response for node 1215, address 0x1720380 with label b and size 32.
50195120501: system.acc0_datapath: Receiving DMA response for node 1215, address 0x17203a0 with label b and size 32.
50195125501: system.acc0_datapath: Receiving DMA response for node 1215, address 0x17203c0 with label b and size 32.
50195130501: system.acc0_datapath: Receiving DMA response for node 1215, address 0x17203e0 with label b and size 32.
50195135501: system.acc0_datapath: Receiving DMA response for node 1215, address 0x1720400 with label b and size 32.
50195140501: system.acc0_datapath: Receiving DMA response for node 1215, address 0x1720420 with label b and size 32.
50195145501: system.acc0_datapath: Receiving DMA response for node 1215, address 0x1720440 with label b and size 32.
50195189001: system.acc0_datapath: Receiving DMA response for node 1215, address 0x1720460 with label b and size 32.
50195194001: system.acc0_datapath: Receiving DMA response for node 1215, address 0x1720480 with label b and size 32.
50195199001: system.acc0_datapath: Receiving DMA response for node 1215, address 0x17204a0 with label b and size 32.
50195204001: system.acc0_datapath: Receiving DMA response for node 1215, address 0x17204c0 with label b and size 32.
50195209001: system.acc0_datapath: Receiving DMA response for node 1215, address 0x17204e0 with label b and size 32.
50195214001: system.acc0_datapath: Receiving DMA response for node 1215, address 0x1720500 with label b and size 32.
50195219001: system.acc0_datapath: Receiving DMA response for node 1215, address 0x1720520 with label b and size 32.
50195224001: system.acc0_datapath: Receiving DMA response for node 1215, address 0x1720540 with label b and size 32.
50195229001: system.acc0_datapath: Receiving DMA response for node 1215, address 0x1720560 with label b and size 32.
50195234001: system.acc0_datapath: Receiving DMA response for node 1215, address 0x1720580 with label b and size 32.
50195239001: system.acc0_datapath: Receiving DMA response for node 1215, address 0x17205a0 with label b and size 32.
50195244001: system.acc0_datapath: Receiving DMA response for node 1215, address 0x17205c0 with label b and size 32.
50195249001: system.acc0_datapath: Receiving DMA response for node 1215, address 0x17205e0 with label b and size 32.
50195254001: system.acc0_datapath: Receiving DMA response for node 1215, address 0x1720600 with label b and size 32.
50195259001: system.acc0_datapath: Receiving DMA response for node 1215, address 0x1720620 with label b and size 32.
50195264001: system.acc0_datapath: Receiving DMA response for node 1215, address 0x1720640 with label b and size 32.
50195307501: system.acc0_datapath: Receiving DMA response for node 1215, address 0x1720660 with label b and size 32.
50195312501: system.acc0_datapath: Receiving DMA response for node 1215, address 0x1720680 with label b and size 32.
50195317501: system.acc0_datapath: Receiving DMA response for node 1215, address 0x17206a0 with label b and size 32.
50195322501: system.acc0_datapath: Receiving DMA response for node 1215, address 0x17206c0 with label b and size 32.
50195327501: system.acc0_datapath: Receiving DMA response for node 1215, address 0x17206e0 with label b and size 32.
50195332501: system.acc0_datapath: Receiving DMA response for node 1215, address 0x1720700 with label b and size 32.
50195337501: system.acc0_datapath: Receiving DMA response for node 1215, address 0x1720720 with label b and size 32.
50195342501: system.acc0_datapath: Receiving DMA response for node 1215, address 0x1720740 with label b and size 32.
50195347501: system.acc0_datapath: Receiving DMA response for node 1215, address 0x1720760 with label b and size 32.
50195352501: system.acc0_datapath: Receiving DMA response for node 1215, address 0x1720780 with label b and size 32.
50195357501: system.acc0_datapath: Receiving DMA response for node 1215, address 0x17207a0 with label b and size 32.
50195362501: system.acc0_datapath: Receiving DMA response for node 1215, address 0x17207c0 with label b and size 32.
50195367501: system.acc0_datapath: Receiving DMA response for node 1215, address 0x17207e0 with label b and size 32.
50195372501: system.acc0_datapath: Receiving DMA response for node 1215, address 0x1720800 with label b and size 32.
50195377501: system.acc0_datapath: Receiving DMA response for node 1215, address 0x1720820 with label b and size 32.
50195382501: system.acc0_datapath: Receiving DMA response for node 1215, address 0x1720840 with label b and size 32.
50195382501: system.acc0_datapath: dmaCompleteCallback for node 1215.
50195768000: system.acc0_datapath: Scheduling DMA load operation with node id 4065 with delay 1536000
50197304000: system.acc0_datapath: Adding DMA node 4065 to DMA issue queue.
50197304000: system.acc0_datapath: issueDmaRequest: src_addr: 0x1740920, dst_addr: 0x1721860, size: 4096
50197304000: system.acc0_datapath: DMA Accesses: array label b
50197304000: system.acc0_datapath: Increment the dmaLoad accesses of partition b with size 4096. 
50197375501: system.acc0_datapath: Receiving DMA response for node 4065, address 0x1721860 with label b and size 32.
50197380501: system.acc0_datapath: Receiving DMA response for node 4065, address 0x1721880 with label b and size 32.
50197385501: system.acc0_datapath: Receiving DMA response for node 4065, address 0x17218a0 with label b and size 32.
50197390501: system.acc0_datapath: Receiving DMA response for node 4065, address 0x17218c0 with label b and size 32.
50197395501: system.acc0_datapath: Receiving DMA response for node 4065, address 0x17218e0 with label b and size 32.
50197400501: system.acc0_datapath: Receiving DMA response for node 4065, address 0x1721900 with label b and size 32.
50197405501: system.acc0_datapath: Receiving DMA response for node 4065, address 0x1721920 with label b and size 32.
50197410501: system.acc0_datapath: Receiving DMA response for node 4065, address 0x1721940 with label b and size 32.
50197415501: system.acc0_datapath: Receiving DMA response for node 4065, address 0x1721960 with label b and size 32.
50197420501: system.acc0_datapath: Receiving DMA response for node 4065, address 0x1721980 with label b and size 32.
50197425501: system.acc0_datapath: Receiving DMA response for node 4065, address 0x17219a0 with label b and size 32.
50197430501: system.acc0_datapath: Receiving DMA response for node 4065, address 0x17219c0 with label b and size 32.
50197435501: system.acc0_datapath: Receiving DMA response for node 4065, address 0x17219e0 with label b and size 32.
50197440501: system.acc0_datapath: Receiving DMA response for node 4065, address 0x1721a00 with label b and size 32.
50197445501: system.acc0_datapath: Receiving DMA response for node 4065, address 0x1721a20 with label b and size 32.
50197450501: system.acc0_datapath: Receiving DMA response for node 4065, address 0x1721a40 with label b and size 32.
50197494001: system.acc0_datapath: Receiving DMA response for node 4065, address 0x1721a60 with label b and size 32.
50197499001: system.acc0_datapath: Receiving DMA response for node 4065, address 0x1721a80 with label b and size 32.
50197504001: system.acc0_datapath: Receiving DMA response for node 4065, address 0x1721aa0 with label b and size 32.
50197509001: system.acc0_datapath: Receiving DMA response for node 4065, address 0x1721ac0 with label b and size 32.
50197514001: system.acc0_datapath: Receiving DMA response for node 4065, address 0x1721ae0 with label b and size 32.
50197519001: system.acc0_datapath: Receiving DMA response for node 4065, address 0x1721b00 with label b and size 32.
50197524001: system.acc0_datapath: Receiving DMA response for node 4065, address 0x1721b20 with label b and size 32.
50197529001: system.acc0_datapath: Receiving DMA response for node 4065, address 0x1721b40 with label b and size 32.
50197534001: system.acc0_datapath: Receiving DMA response for node 4065, address 0x1721b60 with label b and size 32.
50197539001: system.acc0_datapath: Receiving DMA response for node 4065, address 0x1721b80 with label b and size 32.
50197544001: system.acc0_datapath: Receiving DMA response for node 4065, address 0x1721ba0 with label b and size 32.
50197549001: system.acc0_datapath: Receiving DMA response for node 4065, address 0x1721bc0 with label b and size 32.
50197554001: system.acc0_datapath: Receiving DMA response for node 4065, address 0x1721be0 with label b and size 32.
50197559001: system.acc0_datapath: Receiving DMA response for node 4065, address 0x1721c00 with label b and size 32.
50197564001: system.acc0_datapath: Receiving DMA response for node 4065, address 0x1721c20 with label b and size 32.
50197569001: system.acc0_datapath: Receiving DMA response for node 4065, address 0x1721c40 with label b and size 32.
50197574001: system.acc0_datapath: Receiving DMA response for node 4065, address 0x1721c60 with label b and size 32.
50197579001: system.acc0_datapath: Receiving DMA response for node 4065, address 0x1721c80 with label b and size 32.
50197622501: system.acc0_datapath: Receiving DMA response for node 4065, address 0x1721ca0 with label b and size 32.
50197627501: system.acc0_datapath: Receiving DMA response for node 4065, address 0x1721cc0 with label b and size 32.
50197632501: system.acc0_datapath: Receiving DMA response for node 4065, address 0x1721ce0 with label b and size 32.
50197637501: system.acc0_datapath: Receiving DMA response for node 4065, address 0x1721d00 with label b and size 32.
50197642501: system.acc0_datapath: Receiving DMA response for node 4065, address 0x1721d20 with label b and size 32.
50197647501: system.acc0_datapath: Receiving DMA response for node 4065, address 0x1721d40 with label b and size 32.
50197652501: system.acc0_datapath: Receiving DMA response for node 4065, address 0x1721d60 with label b and size 32.
50197657501: system.acc0_datapath: Receiving DMA response for node 4065, address 0x1721d80 with label b and size 32.
50197662501: system.acc0_datapath: Receiving DMA response for node 4065, address 0x1721da0 with label b and size 32.
50197667501: system.acc0_datapath: Receiving DMA response for node 4065, address 0x1721dc0 with label b and size 32.
50197672501: system.acc0_datapath: Receiving DMA response for node 4065, address 0x1721de0 with label b and size 32.
50197677501: system.acc0_datapath: Receiving DMA response for node 4065, address 0x1721e00 with label b and size 32.
50197682501: system.acc0_datapath: Receiving DMA response for node 4065, address 0x1721e20 with label b and size 32.
50197687501: system.acc0_datapath: Receiving DMA response for node 4065, address 0x1721e40 with label b and size 32.
50197692501: system.acc0_datapath: Receiving DMA response for node 4065, address 0x1721e60 with label b and size 32.
50197697501: system.acc0_datapath: Receiving DMA response for node 4065, address 0x1721e80 with label b and size 32.
50197741001: system.acc0_datapath: Receiving DMA response for node 4065, address 0x1721ea0 with label b and size 32.
50197746001: system.acc0_datapath: Receiving DMA response for node 4065, address 0x1721ec0 with label b and size 32.
50197751001: system.acc0_datapath: Receiving DMA response for node 4065, address 0x1721ee0 with label b and size 32.
50197756001: system.acc0_datapath: Receiving DMA response for node 4065, address 0x1721f00 with label b and size 32.
50197761001: system.acc0_datapath: Receiving DMA response for node 4065, address 0x1721f20 with label b and size 32.
50197766001: system.acc0_datapath: Receiving DMA response for node 4065, address 0x1721f40 with label b and size 32.
50197771001: system.acc0_datapath: Receiving DMA response for node 4065, address 0x1721f60 with label b and size 32.
50197776001: system.acc0_datapath: Receiving DMA response for node 4065, address 0x1721f80 with label b and size 32.
50197781001: system.acc0_datapath: Receiving DMA response for node 4065, address 0x1721fa0 with label b and size 32.
50197786001: system.acc0_datapath: Receiving DMA response for node 4065, address 0x1721fc0 with label b and size 32.
50197791001: system.acc0_datapath: Receiving DMA response for node 4065, address 0x1721fe0 with label b and size 32.
50197796001: system.acc0_datapath: Receiving DMA response for node 4065, address 0x1722000 with label b and size 32.
50197801001: system.acc0_datapath: Receiving DMA response for node 4065, address 0x1722020 with label b and size 32.
50197806001: system.acc0_datapath: Receiving DMA response for node 4065, address 0x1722040 with label b and size 32.
50197811001: system.acc0_datapath: Receiving DMA response for node 4065, address 0x1722060 with label b and size 32.
50197816001: system.acc0_datapath: Receiving DMA response for node 4065, address 0x1722080 with label b and size 32.
50197859501: system.acc0_datapath: Receiving DMA response for node 4065, address 0x17220a0 with label b and size 32.
50197864501: system.acc0_datapath: Receiving DMA response for node 4065, address 0x17220c0 with label b and size 32.
50197869501: system.acc0_datapath: Receiving DMA response for node 4065, address 0x17220e0 with label b and size 32.
50197874501: system.acc0_datapath: Receiving DMA response for node 4065, address 0x1722100 with label b and size 32.
50197879501: system.acc0_datapath: Receiving DMA response for node 4065, address 0x1722120 with label b and size 32.
50197884501: system.acc0_datapath: Receiving DMA response for node 4065, address 0x1722140 with label b and size 32.
50197889501: system.acc0_datapath: Receiving DMA response for node 4065, address 0x1722160 with label b and size 32.
50197894501: system.acc0_datapath: Receiving DMA response for node 4065, address 0x1722180 with label b and size 32.
50197899501: system.acc0_datapath: Receiving DMA response for node 4065, address 0x17221a0 with label b and size 32.
50197904501: system.acc0_datapath: Receiving DMA response for node 4065, address 0x17221c0 with label b and size 32.
50197909501: system.acc0_datapath: Receiving DMA response for node 4065, address 0x17221e0 with label b and size 32.
50197914501: system.acc0_datapath: Receiving DMA response for node 4065, address 0x1722200 with label b and size 32.
50197919501: system.acc0_datapath: Receiving DMA response for node 4065, address 0x1722220 with label b and size 32.
50197924501: system.acc0_datapath: Receiving DMA response for node 4065, address 0x1722240 with label b and size 32.
50197929501: system.acc0_datapath: Receiving DMA response for node 4065, address 0x1722260 with label b and size 32.
50197934501: system.acc0_datapath: Receiving DMA response for node 4065, address 0x1722280 with label b and size 32.
50197978001: system.acc0_datapath: Receiving DMA response for node 4065, address 0x17222a0 with label b and size 32.
50197983001: system.acc0_datapath: Receiving DMA response for node 4065, address 0x17222c0 with label b and size 32.
50197988001: system.acc0_datapath: Receiving DMA response for node 4065, address 0x17222e0 with label b and size 32.
50197993001: system.acc0_datapath: Receiving DMA response for node 4065, address 0x1722300 with label b and size 32.
50197998001: system.acc0_datapath: Receiving DMA response for node 4065, address 0x1722320 with label b and size 32.
50198003001: system.acc0_datapath: Receiving DMA response for node 4065, address 0x1722340 with label b and size 32.
50198008001: system.acc0_datapath: Receiving DMA response for node 4065, address 0x1722360 with label b and size 32.
50198013001: system.acc0_datapath: Receiving DMA response for node 4065, address 0x1722380 with label b and size 32.
50198018001: system.acc0_datapath: Receiving DMA response for node 4065, address 0x17223a0 with label b and size 32.
50198023001: system.acc0_datapath: Receiving DMA response for node 4065, address 0x17223c0 with label b and size 32.
50198028001: system.acc0_datapath: Receiving DMA response for node 4065, address 0x17223e0 with label b and size 32.
50198033001: system.acc0_datapath: Receiving DMA response for node 4065, address 0x1722400 with label b and size 32.
50198038001: system.acc0_datapath: Receiving DMA response for node 4065, address 0x1722420 with label b and size 32.
50198043001: system.acc0_datapath: Receiving DMA response for node 4065, address 0x1722440 with label b and size 32.
50198048001: system.acc0_datapath: Receiving DMA response for node 4065, address 0x1722460 with label b and size 32.
50198053001: system.acc0_datapath: Receiving DMA response for node 4065, address 0x1722480 with label b and size 32.
50198096501: system.acc0_datapath: Receiving DMA response for node 4065, address 0x17224a0 with label b and size 32.
50198101501: system.acc0_datapath: Receiving DMA response for node 4065, address 0x17224c0 with label b and size 32.
50198106501: system.acc0_datapath: Receiving DMA response for node 4065, address 0x17224e0 with label b and size 32.
50198111501: system.acc0_datapath: Receiving DMA response for node 4065, address 0x1722500 with label b and size 32.
50198116501: system.acc0_datapath: Receiving DMA response for node 4065, address 0x1722520 with label b and size 32.
50198121501: system.acc0_datapath: Receiving DMA response for node 4065, address 0x1722540 with label b and size 32.
50198126501: system.acc0_datapath: Receiving DMA response for node 4065, address 0x1722560 with label b and size 32.
50198131501: system.acc0_datapath: Receiving DMA response for node 4065, address 0x1722580 with label b and size 32.
50198136501: system.acc0_datapath: Receiving DMA response for node 4065, address 0x17225a0 with label b and size 32.
50198141501: system.acc0_datapath: Receiving DMA response for node 4065, address 0x17225c0 with label b and size 32.
50198146501: system.acc0_datapath: Receiving DMA response for node 4065, address 0x17225e0 with label b and size 32.
50198151501: system.acc0_datapath: Receiving DMA response for node 4065, address 0x1722600 with label b and size 32.
50198156501: system.acc0_datapath: Receiving DMA response for node 4065, address 0x1722620 with label b and size 32.
50198161501: system.acc0_datapath: Receiving DMA response for node 4065, address 0x1722640 with label b and size 32.
50198166501: system.acc0_datapath: Receiving DMA response for node 4065, address 0x1722660 with label b and size 32.
50198171501: system.acc0_datapath: Receiving DMA response for node 4065, address 0x1722680 with label b and size 32.
50198215001: system.acc0_datapath: Receiving DMA response for node 4065, address 0x17226a0 with label b and size 32.
50198220001: system.acc0_datapath: Receiving DMA response for node 4065, address 0x17226c0 with label b and size 32.
50198225001: system.acc0_datapath: Receiving DMA response for node 4065, address 0x17226e0 with label b and size 32.
50198230001: system.acc0_datapath: Receiving DMA response for node 4065, address 0x1722700 with label b and size 32.
50198235001: system.acc0_datapath: Receiving DMA response for node 4065, address 0x1722720 with label b and size 32.
50198240001: system.acc0_datapath: Receiving DMA response for node 4065, address 0x1722740 with label b and size 32.
50198245001: system.acc0_datapath: Receiving DMA response for node 4065, address 0x1722760 with label b and size 32.
50198250001: system.acc0_datapath: Receiving DMA response for node 4065, address 0x1722780 with label b and size 32.
50198255001: system.acc0_datapath: Receiving DMA response for node 4065, address 0x17227a0 with label b and size 32.
50198260001: system.acc0_datapath: Receiving DMA response for node 4065, address 0x17227c0 with label b and size 32.
50198265001: system.acc0_datapath: Receiving DMA response for node 4065, address 0x17227e0 with label b and size 32.
50198270001: system.acc0_datapath: Receiving DMA response for node 4065, address 0x1722800 with label b and size 32.
50198275001: system.acc0_datapath: Receiving DMA response for node 4065, address 0x1722820 with label b and size 32.
50198280001: system.acc0_datapath: Receiving DMA response for node 4065, address 0x1722840 with label b and size 32.
50198280001: system.acc0_datapath: dmaCompleteCallback for node 4065.
50198666000: system.acc0_datapath: Scheduling DMA load operation with node id 6915 with delay 1536000
50200202000: system.acc0_datapath: Adding DMA node 6915 to DMA issue queue.
50200202000: system.acc0_datapath: issueDmaRequest: src_addr: 0x1741920, dst_addr: 0x1723860, size: 4096
50200202000: system.acc0_datapath: DMA Accesses: array label b
50200202000: system.acc0_datapath: Increment the dmaLoad accesses of partition b with size 4096. 
50200273501: system.acc0_datapath: Receiving DMA response for node 6915, address 0x1723860 with label b and size 32.
50200278501: system.acc0_datapath: Receiving DMA response for node 6915, address 0x1723880 with label b and size 32.
50200283501: system.acc0_datapath: Receiving DMA response for node 6915, address 0x17238a0 with label b and size 32.
50200288501: system.acc0_datapath: Receiving DMA response for node 6915, address 0x17238c0 with label b and size 32.
50200293501: system.acc0_datapath: Receiving DMA response for node 6915, address 0x17238e0 with label b and size 32.
50200298501: system.acc0_datapath: Receiving DMA response for node 6915, address 0x1723900 with label b and size 32.
50200303501: system.acc0_datapath: Receiving DMA response for node 6915, address 0x1723920 with label b and size 32.
50200308501: system.acc0_datapath: Receiving DMA response for node 6915, address 0x1723940 with label b and size 32.
50200313501: system.acc0_datapath: Receiving DMA response for node 6915, address 0x1723960 with label b and size 32.
50200318501: system.acc0_datapath: Receiving DMA response for node 6915, address 0x1723980 with label b and size 32.
50200323501: system.acc0_datapath: Receiving DMA response for node 6915, address 0x17239a0 with label b and size 32.
50200328501: system.acc0_datapath: Receiving DMA response for node 6915, address 0x17239c0 with label b and size 32.
50200333501: system.acc0_datapath: Receiving DMA response for node 6915, address 0x17239e0 with label b and size 32.
50200338501: system.acc0_datapath: Receiving DMA response for node 6915, address 0x1723a00 with label b and size 32.
50200343501: system.acc0_datapath: Receiving DMA response for node 6915, address 0x1723a20 with label b and size 32.
50200348501: system.acc0_datapath: Receiving DMA response for node 6915, address 0x1723a40 with label b and size 32.
50200392001: system.acc0_datapath: Receiving DMA response for node 6915, address 0x1723a60 with label b and size 32.
50200397001: system.acc0_datapath: Receiving DMA response for node 6915, address 0x1723a80 with label b and size 32.
50200402001: system.acc0_datapath: Receiving DMA response for node 6915, address 0x1723aa0 with label b and size 32.
50200407001: system.acc0_datapath: Receiving DMA response for node 6915, address 0x1723ac0 with label b and size 32.
50200412001: system.acc0_datapath: Receiving DMA response for node 6915, address 0x1723ae0 with label b and size 32.
50200417001: system.acc0_datapath: Receiving DMA response for node 6915, address 0x1723b00 with label b and size 32.
50200422001: system.acc0_datapath: Receiving DMA response for node 6915, address 0x1723b20 with label b and size 32.
50200427001: system.acc0_datapath: Receiving DMA response for node 6915, address 0x1723b40 with label b and size 32.
50200432001: system.acc0_datapath: Receiving DMA response for node 6915, address 0x1723b60 with label b and size 32.
50200437001: system.acc0_datapath: Receiving DMA response for node 6915, address 0x1723b80 with label b and size 32.
50200442001: system.acc0_datapath: Receiving DMA response for node 6915, address 0x1723ba0 with label b and size 32.
50200447001: system.acc0_datapath: Receiving DMA response for node 6915, address 0x1723bc0 with label b and size 32.
50200452001: system.acc0_datapath: Receiving DMA response for node 6915, address 0x1723be0 with label b and size 32.
50200457001: system.acc0_datapath: Receiving DMA response for node 6915, address 0x1723c00 with label b and size 32.
50200462001: system.acc0_datapath: Receiving DMA response for node 6915, address 0x1723c20 with label b and size 32.
50200467001: system.acc0_datapath: Receiving DMA response for node 6915, address 0x1723c40 with label b and size 32.
50200472001: system.acc0_datapath: Receiving DMA response for node 6915, address 0x1723c60 with label b and size 32.
50200477001: system.acc0_datapath: Receiving DMA response for node 6915, address 0x1723c80 with label b and size 32.
50200520501: system.acc0_datapath: Receiving DMA response for node 6915, address 0x1723ca0 with label b and size 32.
50200525501: system.acc0_datapath: Receiving DMA response for node 6915, address 0x1723cc0 with label b and size 32.
50200530501: system.acc0_datapath: Receiving DMA response for node 6915, address 0x1723ce0 with label b and size 32.
50200535501: system.acc0_datapath: Receiving DMA response for node 6915, address 0x1723d00 with label b and size 32.
50200540501: system.acc0_datapath: Receiving DMA response for node 6915, address 0x1723d20 with label b and size 32.
50200545501: system.acc0_datapath: Receiving DMA response for node 6915, address 0x1723d40 with label b and size 32.
50200550501: system.acc0_datapath: Receiving DMA response for node 6915, address 0x1723d60 with label b and size 32.
50200555501: system.acc0_datapath: Receiving DMA response for node 6915, address 0x1723d80 with label b and size 32.
50200560501: system.acc0_datapath: Receiving DMA response for node 6915, address 0x1723da0 with label b and size 32.
50200565501: system.acc0_datapath: Receiving DMA response for node 6915, address 0x1723dc0 with label b and size 32.
50200570501: system.acc0_datapath: Receiving DMA response for node 6915, address 0x1723de0 with label b and size 32.
50200575501: system.acc0_datapath: Receiving DMA response for node 6915, address 0x1723e00 with label b and size 32.
50200580501: system.acc0_datapath: Receiving DMA response for node 6915, address 0x1723e20 with label b and size 32.
50200585501: system.acc0_datapath: Receiving DMA response for node 6915, address 0x1723e40 with label b and size 32.
50200590501: system.acc0_datapath: Receiving DMA response for node 6915, address 0x1723e60 with label b and size 32.
50200595501: system.acc0_datapath: Receiving DMA response for node 6915, address 0x1723e80 with label b and size 32.
50200639001: system.acc0_datapath: Receiving DMA response for node 6915, address 0x1723ea0 with label b and size 32.
50200644001: system.acc0_datapath: Receiving DMA response for node 6915, address 0x1723ec0 with label b and size 32.
50200649001: system.acc0_datapath: Receiving DMA response for node 6915, address 0x1723ee0 with label b and size 32.
50200654001: system.acc0_datapath: Receiving DMA response for node 6915, address 0x1723f00 with label b and size 32.
50200659001: system.acc0_datapath: Receiving DMA response for node 6915, address 0x1723f20 with label b and size 32.
50200664001: system.acc0_datapath: Receiving DMA response for node 6915, address 0x1723f40 with label b and size 32.
50200669001: system.acc0_datapath: Receiving DMA response for node 6915, address 0x1723f60 with label b and size 32.
50200674001: system.acc0_datapath: Receiving DMA response for node 6915, address 0x1723f80 with label b and size 32.
50200679001: system.acc0_datapath: Receiving DMA response for node 6915, address 0x1723fa0 with label b and size 32.
50200684001: system.acc0_datapath: Receiving DMA response for node 6915, address 0x1723fc0 with label b and size 32.
50200689001: system.acc0_datapath: Receiving DMA response for node 6915, address 0x1723fe0 with label b and size 32.
50200694001: system.acc0_datapath: Receiving DMA response for node 6915, address 0x1724000 with label b and size 32.
50200699001: system.acc0_datapath: Receiving DMA response for node 6915, address 0x1724020 with label b and size 32.
50200704001: system.acc0_datapath: Receiving DMA response for node 6915, address 0x1724040 with label b and size 32.
50200709001: system.acc0_datapath: Receiving DMA response for node 6915, address 0x1724060 with label b and size 32.
50200714001: system.acc0_datapath: Receiving DMA response for node 6915, address 0x1724080 with label b and size 32.
50200757501: system.acc0_datapath: Receiving DMA response for node 6915, address 0x17240a0 with label b and size 32.
50200762501: system.acc0_datapath: Receiving DMA response for node 6915, address 0x17240c0 with label b and size 32.
50200767501: system.acc0_datapath: Receiving DMA response for node 6915, address 0x17240e0 with label b and size 32.
50200772501: system.acc0_datapath: Receiving DMA response for node 6915, address 0x1724100 with label b and size 32.
50200777501: system.acc0_datapath: Receiving DMA response for node 6915, address 0x1724120 with label b and size 32.
50200782501: system.acc0_datapath: Receiving DMA response for node 6915, address 0x1724140 with label b and size 32.
50200787501: system.acc0_datapath: Receiving DMA response for node 6915, address 0x1724160 with label b and size 32.
50200792501: system.acc0_datapath: Receiving DMA response for node 6915, address 0x1724180 with label b and size 32.
50200797501: system.acc0_datapath: Receiving DMA response for node 6915, address 0x17241a0 with label b and size 32.
50200802501: system.acc0_datapath: Receiving DMA response for node 6915, address 0x17241c0 with label b and size 32.
50200807501: system.acc0_datapath: Receiving DMA response for node 6915, address 0x17241e0 with label b and size 32.
50200812501: system.acc0_datapath: Receiving DMA response for node 6915, address 0x1724200 with label b and size 32.
50200817501: system.acc0_datapath: Receiving DMA response for node 6915, address 0x1724220 with label b and size 32.
50200822501: system.acc0_datapath: Receiving DMA response for node 6915, address 0x1724240 with label b and size 32.
50200827501: system.acc0_datapath: Receiving DMA response for node 6915, address 0x1724260 with label b and size 32.
50200832501: system.acc0_datapath: Receiving DMA response for node 6915, address 0x1724280 with label b and size 32.
50200876001: system.acc0_datapath: Receiving DMA response for node 6915, address 0x17242a0 with label b and size 32.
50200881001: system.acc0_datapath: Receiving DMA response for node 6915, address 0x17242c0 with label b and size 32.
50200886001: system.acc0_datapath: Receiving DMA response for node 6915, address 0x17242e0 with label b and size 32.
50200891001: system.acc0_datapath: Receiving DMA response for node 6915, address 0x1724300 with label b and size 32.
50200896001: system.acc0_datapath: Receiving DMA response for node 6915, address 0x1724320 with label b and size 32.
50200901001: system.acc0_datapath: Receiving DMA response for node 6915, address 0x1724340 with label b and size 32.
50200906001: system.acc0_datapath: Receiving DMA response for node 6915, address 0x1724360 with label b and size 32.
50200911001: system.acc0_datapath: Receiving DMA response for node 6915, address 0x1724380 with label b and size 32.
50200916001: system.acc0_datapath: Receiving DMA response for node 6915, address 0x17243a0 with label b and size 32.
50200921001: system.acc0_datapath: Receiving DMA response for node 6915, address 0x17243c0 with label b and size 32.
50200926001: system.acc0_datapath: Receiving DMA response for node 6915, address 0x17243e0 with label b and size 32.
50200931001: system.acc0_datapath: Receiving DMA response for node 6915, address 0x1724400 with label b and size 32.
50200936001: system.acc0_datapath: Receiving DMA response for node 6915, address 0x1724420 with label b and size 32.
50200941001: system.acc0_datapath: Receiving DMA response for node 6915, address 0x1724440 with label b and size 32.
50200946001: system.acc0_datapath: Receiving DMA response for node 6915, address 0x1724460 with label b and size 32.
50200951001: system.acc0_datapath: Receiving DMA response for node 6915, address 0x1724480 with label b and size 32.
50200994501: system.acc0_datapath: Receiving DMA response for node 6915, address 0x17244a0 with label b and size 32.
50200999501: system.acc0_datapath: Receiving DMA response for node 6915, address 0x17244c0 with label b and size 32.
50201004501: system.acc0_datapath: Receiving DMA response for node 6915, address 0x17244e0 with label b and size 32.
50201009501: system.acc0_datapath: Receiving DMA response for node 6915, address 0x1724500 with label b and size 32.
50201014501: system.acc0_datapath: Receiving DMA response for node 6915, address 0x1724520 with label b and size 32.
50201019501: system.acc0_datapath: Receiving DMA response for node 6915, address 0x1724540 with label b and size 32.
50201024501: system.acc0_datapath: Receiving DMA response for node 6915, address 0x1724560 with label b and size 32.
50201029501: system.acc0_datapath: Receiving DMA response for node 6915, address 0x1724580 with label b and size 32.
50201034501: system.acc0_datapath: Receiving DMA response for node 6915, address 0x17245a0 with label b and size 32.
50201039501: system.acc0_datapath: Receiving DMA response for node 6915, address 0x17245c0 with label b and size 32.
50201044501: system.acc0_datapath: Receiving DMA response for node 6915, address 0x17245e0 with label b and size 32.
50201049501: system.acc0_datapath: Receiving DMA response for node 6915, address 0x1724600 with label b and size 32.
50201054501: system.acc0_datapath: Receiving DMA response for node 6915, address 0x1724620 with label b and size 32.
50201059501: system.acc0_datapath: Receiving DMA response for node 6915, address 0x1724640 with label b and size 32.
50201064501: system.acc0_datapath: Receiving DMA response for node 6915, address 0x1724660 with label b and size 32.
50201069501: system.acc0_datapath: Receiving DMA response for node 6915, address 0x1724680 with label b and size 32.
50201113001: system.acc0_datapath: Receiving DMA response for node 6915, address 0x17246a0 with label b and size 32.
50201118001: system.acc0_datapath: Receiving DMA response for node 6915, address 0x17246c0 with label b and size 32.
50201123001: system.acc0_datapath: Receiving DMA response for node 6915, address 0x17246e0 with label b and size 32.
50201128001: system.acc0_datapath: Receiving DMA response for node 6915, address 0x1724700 with label b and size 32.
50201133001: system.acc0_datapath: Receiving DMA response for node 6915, address 0x1724720 with label b and size 32.
50201138001: system.acc0_datapath: Receiving DMA response for node 6915, address 0x1724740 with label b and size 32.
50201143001: system.acc0_datapath: Receiving DMA response for node 6915, address 0x1724760 with label b and size 32.
50201148001: system.acc0_datapath: Receiving DMA response for node 6915, address 0x1724780 with label b and size 32.
50201153001: system.acc0_datapath: Receiving DMA response for node 6915, address 0x17247a0 with label b and size 32.
50201158001: system.acc0_datapath: Receiving DMA response for node 6915, address 0x17247c0 with label b and size 32.
50201163001: system.acc0_datapath: Receiving DMA response for node 6915, address 0x17247e0 with label b and size 32.
50201168001: system.acc0_datapath: Receiving DMA response for node 6915, address 0x1724800 with label b and size 32.
50201173001: system.acc0_datapath: Receiving DMA response for node 6915, address 0x1724820 with label b and size 32.
50201178001: system.acc0_datapath: Receiving DMA response for node 6915, address 0x1724840 with label b and size 32.
50201178001: system.acc0_datapath: dmaCompleteCallback for node 6915.
50201564000: system.acc0_datapath: Scheduling DMA load operation with node id 9765 with delay 1536000
50203100000: system.acc0_datapath: Adding DMA node 9765 to DMA issue queue.
50203100000: system.acc0_datapath: issueDmaRequest: src_addr: 0x1742920, dst_addr: 0x1725860, size: 4096
50203100000: system.acc0_datapath: DMA Accesses: array label b
50203100000: system.acc0_datapath: Increment the dmaLoad accesses of partition b with size 4096. 
50203171501: system.acc0_datapath: Receiving DMA response for node 9765, address 0x1725860 with label b and size 32.
50203176501: system.acc0_datapath: Receiving DMA response for node 9765, address 0x1725880 with label b and size 32.
50203181501: system.acc0_datapath: Receiving DMA response for node 9765, address 0x17258a0 with label b and size 32.
50203186501: system.acc0_datapath: Receiving DMA response for node 9765, address 0x17258c0 with label b and size 32.
50203191501: system.acc0_datapath: Receiving DMA response for node 9765, address 0x17258e0 with label b and size 32.
50203196501: system.acc0_datapath: Receiving DMA response for node 9765, address 0x1725900 with label b and size 32.
50203201501: system.acc0_datapath: Receiving DMA response for node 9765, address 0x1725920 with label b and size 32.
50203206501: system.acc0_datapath: Receiving DMA response for node 9765, address 0x1725940 with label b and size 32.
50203211501: system.acc0_datapath: Receiving DMA response for node 9765, address 0x1725960 with label b and size 32.
50203216501: system.acc0_datapath: Receiving DMA response for node 9765, address 0x1725980 with label b and size 32.
50203221501: system.acc0_datapath: Receiving DMA response for node 9765, address 0x17259a0 with label b and size 32.
50203226501: system.acc0_datapath: Receiving DMA response for node 9765, address 0x17259c0 with label b and size 32.
50203231501: system.acc0_datapath: Receiving DMA response for node 9765, address 0x17259e0 with label b and size 32.
50203236501: system.acc0_datapath: Receiving DMA response for node 9765, address 0x1725a00 with label b and size 32.
50203241501: system.acc0_datapath: Receiving DMA response for node 9765, address 0x1725a20 with label b and size 32.
50203246501: system.acc0_datapath: Receiving DMA response for node 9765, address 0x1725a40 with label b and size 32.
50203290001: system.acc0_datapath: Receiving DMA response for node 9765, address 0x1725a60 with label b and size 32.
50203295001: system.acc0_datapath: Receiving DMA response for node 9765, address 0x1725a80 with label b and size 32.
50203300001: system.acc0_datapath: Receiving DMA response for node 9765, address 0x1725aa0 with label b and size 32.
50203305001: system.acc0_datapath: Receiving DMA response for node 9765, address 0x1725ac0 with label b and size 32.
50203310001: system.acc0_datapath: Receiving DMA response for node 9765, address 0x1725ae0 with label b and size 32.
50203315001: system.acc0_datapath: Receiving DMA response for node 9765, address 0x1725b00 with label b and size 32.
50203320001: system.acc0_datapath: Receiving DMA response for node 9765, address 0x1725b20 with label b and size 32.
50203325001: system.acc0_datapath: Receiving DMA response for node 9765, address 0x1725b40 with label b and size 32.
50203330001: system.acc0_datapath: Receiving DMA response for node 9765, address 0x1725b60 with label b and size 32.
50203335001: system.acc0_datapath: Receiving DMA response for node 9765, address 0x1725b80 with label b and size 32.
50203340001: system.acc0_datapath: Receiving DMA response for node 9765, address 0x1725ba0 with label b and size 32.
50203345001: system.acc0_datapath: Receiving DMA response for node 9765, address 0x1725bc0 with label b and size 32.
50203350001: system.acc0_datapath: Receiving DMA response for node 9765, address 0x1725be0 with label b and size 32.
50203355001: system.acc0_datapath: Receiving DMA response for node 9765, address 0x1725c00 with label b and size 32.
50203360001: system.acc0_datapath: Receiving DMA response for node 9765, address 0x1725c20 with label b and size 32.
50203365001: system.acc0_datapath: Receiving DMA response for node 9765, address 0x1725c40 with label b and size 32.
50203370001: system.acc0_datapath: Receiving DMA response for node 9765, address 0x1725c60 with label b and size 32.
50203375001: system.acc0_datapath: Receiving DMA response for node 9765, address 0x1725c80 with label b and size 32.
50203418501: system.acc0_datapath: Receiving DMA response for node 9765, address 0x1725ca0 with label b and size 32.
50203423501: system.acc0_datapath: Receiving DMA response for node 9765, address 0x1725cc0 with label b and size 32.
50203428501: system.acc0_datapath: Receiving DMA response for node 9765, address 0x1725ce0 with label b and size 32.
50203433501: system.acc0_datapath: Receiving DMA response for node 9765, address 0x1725d00 with label b and size 32.
50203438501: system.acc0_datapath: Receiving DMA response for node 9765, address 0x1725d20 with label b and size 32.
50203443501: system.acc0_datapath: Receiving DMA response for node 9765, address 0x1725d40 with label b and size 32.
50203448501: system.acc0_datapath: Receiving DMA response for node 9765, address 0x1725d60 with label b and size 32.
50203453501: system.acc0_datapath: Receiving DMA response for node 9765, address 0x1725d80 with label b and size 32.
50203458501: system.acc0_datapath: Receiving DMA response for node 9765, address 0x1725da0 with label b and size 32.
50203463501: system.acc0_datapath: Receiving DMA response for node 9765, address 0x1725dc0 with label b and size 32.
50203468501: system.acc0_datapath: Receiving DMA response for node 9765, address 0x1725de0 with label b and size 32.
50203473501: system.acc0_datapath: Receiving DMA response for node 9765, address 0x1725e00 with label b and size 32.
50203478501: system.acc0_datapath: Receiving DMA response for node 9765, address 0x1725e20 with label b and size 32.
50203483501: system.acc0_datapath: Receiving DMA response for node 9765, address 0x1725e40 with label b and size 32.
50203488501: system.acc0_datapath: Receiving DMA response for node 9765, address 0x1725e60 with label b and size 32.
50203493501: system.acc0_datapath: Receiving DMA response for node 9765, address 0x1725e80 with label b and size 32.
50203537001: system.acc0_datapath: Receiving DMA response for node 9765, address 0x1725ea0 with label b and size 32.
50203542001: system.acc0_datapath: Receiving DMA response for node 9765, address 0x1725ec0 with label b and size 32.
50203547001: system.acc0_datapath: Receiving DMA response for node 9765, address 0x1725ee0 with label b and size 32.
50203552001: system.acc0_datapath: Receiving DMA response for node 9765, address 0x1725f00 with label b and size 32.
50203557001: system.acc0_datapath: Receiving DMA response for node 9765, address 0x1725f20 with label b and size 32.
50203562001: system.acc0_datapath: Receiving DMA response for node 9765, address 0x1725f40 with label b and size 32.
50203567001: system.acc0_datapath: Receiving DMA response for node 9765, address 0x1725f60 with label b and size 32.
50203572001: system.acc0_datapath: Receiving DMA response for node 9765, address 0x1725f80 with label b and size 32.
50203577001: system.acc0_datapath: Receiving DMA response for node 9765, address 0x1725fa0 with label b and size 32.
50203582001: system.acc0_datapath: Receiving DMA response for node 9765, address 0x1725fc0 with label b and size 32.
50203587001: system.acc0_datapath: Receiving DMA response for node 9765, address 0x1725fe0 with label b and size 32.
50203592001: system.acc0_datapath: Receiving DMA response for node 9765, address 0x1726000 with label b and size 32.
50203597001: system.acc0_datapath: Receiving DMA response for node 9765, address 0x1726020 with label b and size 32.
50203602001: system.acc0_datapath: Receiving DMA response for node 9765, address 0x1726040 with label b and size 32.
50203607001: system.acc0_datapath: Receiving DMA response for node 9765, address 0x1726060 with label b and size 32.
50203612001: system.acc0_datapath: Receiving DMA response for node 9765, address 0x1726080 with label b and size 32.
50203655501: system.acc0_datapath: Receiving DMA response for node 9765, address 0x17260a0 with label b and size 32.
50203660501: system.acc0_datapath: Receiving DMA response for node 9765, address 0x17260c0 with label b and size 32.
50203665501: system.acc0_datapath: Receiving DMA response for node 9765, address 0x17260e0 with label b and size 32.
50203670501: system.acc0_datapath: Receiving DMA response for node 9765, address 0x1726100 with label b and size 32.
50203675501: system.acc0_datapath: Receiving DMA response for node 9765, address 0x1726120 with label b and size 32.
50203680501: system.acc0_datapath: Receiving DMA response for node 9765, address 0x1726140 with label b and size 32.
50203685501: system.acc0_datapath: Receiving DMA response for node 9765, address 0x1726160 with label b and size 32.
50203690501: system.acc0_datapath: Receiving DMA response for node 9765, address 0x1726180 with label b and size 32.
50203695501: system.acc0_datapath: Receiving DMA response for node 9765, address 0x17261a0 with label b and size 32.
50203700501: system.acc0_datapath: Receiving DMA response for node 9765, address 0x17261c0 with label b and size 32.
50203705501: system.acc0_datapath: Receiving DMA response for node 9765, address 0x17261e0 with label b and size 32.
50203710501: system.acc0_datapath: Receiving DMA response for node 9765, address 0x1726200 with label b and size 32.
50203715501: system.acc0_datapath: Receiving DMA response for node 9765, address 0x1726220 with label b and size 32.
50203720501: system.acc0_datapath: Receiving DMA response for node 9765, address 0x1726240 with label b and size 32.
50203725501: system.acc0_datapath: Receiving DMA response for node 9765, address 0x1726260 with label b and size 32.
50203730501: system.acc0_datapath: Receiving DMA response for node 9765, address 0x1726280 with label b and size 32.
50203774001: system.acc0_datapath: Receiving DMA response for node 9765, address 0x17262a0 with label b and size 32.
50203779001: system.acc0_datapath: Receiving DMA response for node 9765, address 0x17262c0 with label b and size 32.
50203784001: system.acc0_datapath: Receiving DMA response for node 9765, address 0x17262e0 with label b and size 32.
50203789001: system.acc0_datapath: Receiving DMA response for node 9765, address 0x1726300 with label b and size 32.
50203794001: system.acc0_datapath: Receiving DMA response for node 9765, address 0x1726320 with label b and size 32.
50203799001: system.acc0_datapath: Receiving DMA response for node 9765, address 0x1726340 with label b and size 32.
50203804001: system.acc0_datapath: Receiving DMA response for node 9765, address 0x1726360 with label b and size 32.
50203809001: system.acc0_datapath: Receiving DMA response for node 9765, address 0x1726380 with label b and size 32.
50203814001: system.acc0_datapath: Receiving DMA response for node 9765, address 0x17263a0 with label b and size 32.
50203819001: system.acc0_datapath: Receiving DMA response for node 9765, address 0x17263c0 with label b and size 32.
50203824001: system.acc0_datapath: Receiving DMA response for node 9765, address 0x17263e0 with label b and size 32.
50203829001: system.acc0_datapath: Receiving DMA response for node 9765, address 0x1726400 with label b and size 32.
50203834001: system.acc0_datapath: Receiving DMA response for node 9765, address 0x1726420 with label b and size 32.
50203839001: system.acc0_datapath: Receiving DMA response for node 9765, address 0x1726440 with label b and size 32.
50203844001: system.acc0_datapath: Receiving DMA response for node 9765, address 0x1726460 with label b and size 32.
50203849001: system.acc0_datapath: Receiving DMA response for node 9765, address 0x1726480 with label b and size 32.
50203892501: system.acc0_datapath: Receiving DMA response for node 9765, address 0x17264a0 with label b and size 32.
50203897501: system.acc0_datapath: Receiving DMA response for node 9765, address 0x17264c0 with label b and size 32.
50203902501: system.acc0_datapath: Receiving DMA response for node 9765, address 0x17264e0 with label b and size 32.
50203907501: system.acc0_datapath: Receiving DMA response for node 9765, address 0x1726500 with label b and size 32.
50203912501: system.acc0_datapath: Receiving DMA response for node 9765, address 0x1726520 with label b and size 32.
50203917501: system.acc0_datapath: Receiving DMA response for node 9765, address 0x1726540 with label b and size 32.
50203922501: system.acc0_datapath: Receiving DMA response for node 9765, address 0x1726560 with label b and size 32.
50203927501: system.acc0_datapath: Receiving DMA response for node 9765, address 0x1726580 with label b and size 32.
50203932501: system.acc0_datapath: Receiving DMA response for node 9765, address 0x17265a0 with label b and size 32.
50203937501: system.acc0_datapath: Receiving DMA response for node 9765, address 0x17265c0 with label b and size 32.
50203942501: system.acc0_datapath: Receiving DMA response for node 9765, address 0x17265e0 with label b and size 32.
50203947501: system.acc0_datapath: Receiving DMA response for node 9765, address 0x1726600 with label b and size 32.
50203952501: system.acc0_datapath: Receiving DMA response for node 9765, address 0x1726620 with label b and size 32.
50203957501: system.acc0_datapath: Receiving DMA response for node 9765, address 0x1726640 with label b and size 32.
50203962501: system.acc0_datapath: Receiving DMA response for node 9765, address 0x1726660 with label b and size 32.
50203967501: system.acc0_datapath: Receiving DMA response for node 9765, address 0x1726680 with label b and size 32.
50204011001: system.acc0_datapath: Receiving DMA response for node 9765, address 0x17266a0 with label b and size 32.
50204016001: system.acc0_datapath: Receiving DMA response for node 9765, address 0x17266c0 with label b and size 32.
50204021001: system.acc0_datapath: Receiving DMA response for node 9765, address 0x17266e0 with label b and size 32.
50204026001: system.acc0_datapath: Receiving DMA response for node 9765, address 0x1726700 with label b and size 32.
50204031001: system.acc0_datapath: Receiving DMA response for node 9765, address 0x1726720 with label b and size 32.
50204036001: system.acc0_datapath: Receiving DMA response for node 9765, address 0x1726740 with label b and size 32.
50204041001: system.acc0_datapath: Receiving DMA response for node 9765, address 0x1726760 with label b and size 32.
50204046001: system.acc0_datapath: Receiving DMA response for node 9765, address 0x1726780 with label b and size 32.
50204051001: system.acc0_datapath: Receiving DMA response for node 9765, address 0x17267a0 with label b and size 32.
50204056001: system.acc0_datapath: Receiving DMA response for node 9765, address 0x17267c0 with label b and size 32.
50204061001: system.acc0_datapath: Receiving DMA response for node 9765, address 0x17267e0 with label b and size 32.
50204066001: system.acc0_datapath: Receiving DMA response for node 9765, address 0x1726800 with label b and size 32.
50204071001: system.acc0_datapath: Receiving DMA response for node 9765, address 0x1726820 with label b and size 32.
50204076001: system.acc0_datapath: Receiving DMA response for node 9765, address 0x1726840 with label b and size 32.
50204076001: system.acc0_datapath: dmaCompleteCallback for node 9765.
50204462000: system.acc0_datapath: Scheduling DMA load operation with node id 12615 with delay 1536000
50205998000: system.acc0_datapath: Adding DMA node 12615 to DMA issue queue.
50205998000: system.acc0_datapath: issueDmaRequest: src_addr: 0x1743920, dst_addr: 0x1727860, size: 4096
50205998000: system.acc0_datapath: DMA Accesses: array label b
50205998000: system.acc0_datapath: Increment the dmaLoad accesses of partition b with size 4096. 
50206051501: system.acc0_datapath: Receiving DMA response for node 12615, address 0x1727860 with label b and size 32.
50206056501: system.acc0_datapath: Receiving DMA response for node 12615, address 0x1727880 with label b and size 32.
50206100001: system.acc0_datapath: Receiving DMA response for node 12615, address 0x17278a0 with label b and size 32.
50206105001: system.acc0_datapath: Receiving DMA response for node 12615, address 0x17278c0 with label b and size 32.
50206110001: system.acc0_datapath: Receiving DMA response for node 12615, address 0x17278e0 with label b and size 32.
50206115001: system.acc0_datapath: Receiving DMA response for node 12615, address 0x1727900 with label b and size 32.
50206120001: system.acc0_datapath: Receiving DMA response for node 12615, address 0x1727920 with label b and size 32.
[...]
50787444501: system.acc0_datapath: Receiving DMA response for node 489, address 0x171f980 with label b and size 32.
50787449501: system.acc0_datapath: Receiving DMA response for node 489, address 0x171f9a0 with label b and size 32.
50787454501: system.acc0_datapath: Receiving DMA response for node 489, address 0x171f9c0 with label b and size 32.
50787459501: system.acc0_datapath: Receiving DMA response for node 489, address 0x171f9e0 with label b and size 32.
50787464501: system.acc0_datapath: Receiving DMA response for node 489, address 0x171fa00 with label b and size 32.
50787469501: system.acc0_datapath: Receiving DMA response for node 489, address 0x171fa20 with label b and size 32.
50787474501: system.acc0_datapath: Receiving DMA response for node 489, address 0x171fa40 with label b and size 32.
50787518001: system.acc0_datapath: Receiving DMA response for node 489, address 0x171fa60 with label b and size 32.
50787523001: system.acc0_datapath: Receiving DMA response for node 489, address 0x171fa80 with label b and size 32.
50787528001: system.acc0_datapath: Receiving DMA response for node 489, address 0x171faa0 with label b and size 32.
50787533001: system.acc0_datapath: Receiving DMA response for node 489, address 0x171fac0 with label b and size 32.
50787538001: system.acc0_datapath: Receiving DMA response for node 489, address 0x171fae0 with label b and size 32.
50787543001: system.acc0_datapath: Receiving DMA response for node 489, address 0x171fb00 with label b and size 32.
50787548001: system.acc0_datapath: Receiving DMA response for node 489, address 0x171fb20 with label b and size 32.
50787553001: system.acc0_datapath: Receiving DMA response for node 489, address 0x171fb40 with label b and size 32.
50787558001: system.acc0_datapath: Receiving DMA response for node 489, address 0x171fb60 with label b and size 32.
50787563001: system.acc0_datapath: Receiving DMA response for node 489, address 0x171fb80 with label b and size 32.
50787568001: system.acc0_datapath: Receiving DMA response for node 489, address 0x171fba0 with label b and size 32.
50787573001: system.acc0_datapath: Receiving DMA response for node 489, address 0x171fbc0 with label b and size 32.
50787578001: system.acc0_datapath: Receiving DMA response for node 489, address 0x171fbe0 with label b and size 32.
50787583001: system.acc0_datapath: Receiving DMA response for node 489, address 0x171fc00 with label b and size 32.
50787588001: system.acc0_datapath: Receiving DMA response for node 489, address 0x171fc20 with label b and size 32.
50787593001: system.acc0_datapath: Receiving DMA response for node 489, address 0x171fc40 with label b and size 32.
50787636501: system.acc0_datapath: Receiving DMA response for node 489, address 0x171fc60 with label b and size 32.
50787641501: system.acc0_datapath: Receiving DMA response for node 489, address 0x171fc80 with label b and size 32.
50787646501: system.acc0_datapath: Receiving DMA response for node 489, address 0x171fca0 with label b and size 32.
50787651501: system.acc0_datapath: Receiving DMA response for node 489, address 0x171fcc0 with label b and size 32.
50787656501: system.acc0_datapath: Receiving DMA response for node 489, address 0x171fce0 with label b and size 32.
50787661501: system.acc0_datapath: Receiving DMA response for node 489, address 0x171fd00 with label b and size 32.
50787666501: system.acc0_datapath: Receiving DMA response for node 489, address 0x171fd20 with label b and size 32.
50787671501: system.acc0_datapath: Receiving DMA response for node 489, address 0x171fd40 with label b and size 32.
50787676501: system.acc0_datapath: Receiving DMA response for node 489, address 0x171fd60 with label b and size 32.
50787681501: system.acc0_datapath: Receiving DMA response for node 489, address 0x171fd80 with label b and size 32.
50787686501: system.acc0_datapath: Receiving DMA response for node 489, address 0x171fda0 with label b and size 32.
50787691501: system.acc0_datapath: Receiving DMA response for node 489, address 0x171fdc0 with label b and size 32.
50787696501: system.acc0_datapath: Receiving DMA response for node 489, address 0x171fde0 with label b and size 32.
50787701501: system.acc0_datapath: Receiving DMA response for node 489, address 0x171fe00 with label b and size 32.
50787706501: system.acc0_datapath: Receiving DMA response for node 489, address 0x171fe20 with label b and size 32.
50787711501: system.acc0_datapath: Receiving DMA response for node 489, address 0x171fe40 with label b and size 32.
50787716501: system.acc0_datapath: Receiving DMA response for node 489, address 0x171fe60 with label b and size 32.
50787721501: system.acc0_datapath: Receiving DMA response for node 489, address 0x171fe80 with label b and size 32.
50787726501: system.acc0_datapath: Receiving DMA response for node 489, address 0x171fea0 with label b and size 32.
50787731501: system.acc0_datapath: Receiving DMA response for node 489, address 0x171fec0 with label b and size 32.
50787736501: system.acc0_datapath: Receiving DMA response for node 489, address 0x171fee0 with label b and size 32.
50787741501: system.acc0_datapath: Receiving DMA response for node 489, address 0x171ff00 with label b and size 32.
50787746501: system.acc0_datapath: Receiving DMA response for node 489, address 0x171ff20 with label b and size 32.
50787751501: system.acc0_datapath: Receiving DMA response for node 489, address 0x171ff40 with label b and size 32.
50787756501: system.acc0_datapath: Receiving DMA response for node 489, address 0x171ff60 with label b and size 32.
50787761501: system.acc0_datapath: Receiving DMA response for node 489, address 0x171ff80 with label b and size 32.
50787766501: system.acc0_datapath: Receiving DMA response for node 489, address 0x171ffa0 with label b and size 32.
50787771501: system.acc0_datapath: Receiving DMA response for node 489, address 0x171ffc0 with label b and size 32.
50787776501: system.acc0_datapath: Receiving DMA response for node 489, address 0x171ffe0 with label b and size 32.
50787781501: system.acc0_datapath: Receiving DMA response for node 489, address 0x1720000 with label b and size 32.
50787786501: system.acc0_datapath: Receiving DMA response for node 489, address 0x1720020 with label b and size 32.
50787830001: system.acc0_datapath: Receiving DMA response for node 489, address 0x1720040 with label b and size 32.
50787835001: system.acc0_datapath: Receiving DMA response for node 489, address 0x1720060 with label b and size 32.
50787840001: system.acc0_datapath: Receiving DMA response for node 489, address 0x1720080 with label b and size 32.
50787845001: system.acc0_datapath: Receiving DMA response for node 489, address 0x17200a0 with label b and size 32.
50787850001: system.acc0_datapath: Receiving DMA response for node 489, address 0x17200c0 with label b and size 32.
50787855001: system.acc0_datapath: Receiving DMA response for node 489, address 0x17200e0 with label b and size 32.
50787860001: system.acc0_datapath: Receiving DMA response for node 489, address 0x1720100 with label b and size 32.
50787865001: system.acc0_datapath: Receiving DMA response for node 489, address 0x1720120 with label b and size 32.
50787870001: system.acc0_datapath: Receiving DMA response for node 489, address 0x1720140 with label b and size 32.
50787875001: system.acc0_datapath: Receiving DMA response for node 489, address 0x1720160 with label b and size 32.
50787880001: system.acc0_datapath: Receiving DMA response for node 489, address 0x1720180 with label b and size 32.
50787885001: system.acc0_datapath: Receiving DMA response for node 489, address 0x17201a0 with label b and size 32.
50787890001: system.acc0_datapath: Receiving DMA response for node 489, address 0x17201c0 with label b and size 32.
50787895001: system.acc0_datapath: Receiving DMA response for node 489, address 0x17201e0 with label b and size 32.
50787900001: system.acc0_datapath: Receiving DMA response for node 489, address 0x1720200 with label b and size 32.
50787905001: system.acc0_datapath: Receiving DMA response for node 489, address 0x1720220 with label b and size 32.
50787948501: system.acc0_datapath: Receiving DMA response for node 489, address 0x1720240 with label b and size 32.
50787953501: system.acc0_datapath: Receiving DMA response for node 489, address 0x1720260 with label b and size 32.
50787958501: system.acc0_datapath: Receiving DMA response for node 489, address 0x1720280 with label b and size 32.
50787963501: system.acc0_datapath: Receiving DMA response for node 489, address 0x17202a0 with label b and size 32.
50787968501: system.acc0_datapath: Receiving DMA response for node 489, address 0x17202c0 with label b and size 32.
50787973501: system.acc0_datapath: Receiving DMA response for node 489, address 0x17202e0 with label b and size 32.
50787978501: system.acc0_datapath: Receiving DMA response for node 489, address 0x1720300 with label b and size 32.
50787983501: system.acc0_datapath: Receiving DMA response for node 489, address 0x1720320 with label b and size 32.
50787988501: system.acc0_datapath: Receiving DMA response for node 489, address 0x1720340 with label b and size 32.
50787993501: system.acc0_datapath: Receiving DMA response for node 489, address 0x1720360 with label b and size 32.
50787998501: system.acc0_datapath: Receiving DMA response for node 489, address 0x1720380 with label b and size 32.
50788003501: system.acc0_datapath: Receiving DMA response for node 489, address 0x17203a0 with label b and size 32.
50788008501: system.acc0_datapath: Receiving DMA response for node 489, address 0x17203c0 with label b and size 32.
50788013501: system.acc0_datapath: Receiving DMA response for node 489, address 0x17203e0 with label b and size 32.
50788018501: system.acc0_datapath: Receiving DMA response for node 489, address 0x1720400 with label b and size 32.
50788023501: system.acc0_datapath: Receiving DMA response for node 489, address 0x1720420 with label b and size 32.
50788067001: system.acc0_datapath: Receiving DMA response for node 489, address 0x1720440 with label b and size 32.
50788072001: system.acc0_datapath: Receiving DMA response for node 489, address 0x1720460 with label b and size 32.
50788077001: system.acc0_datapath: Receiving DMA response for node 489, address 0x1720480 with label b and size 32.
50788082001: system.acc0_datapath: Receiving DMA response for node 489, address 0x17204a0 with label b and size 32.
50788087001: system.acc0_datapath: Receiving DMA response for node 489, address 0x17204c0 with label b and size 32.
50788092001: system.acc0_datapath: Receiving DMA response for node 489, address 0x17204e0 with label b and size 32.
50788097001: system.acc0_datapath: Receiving DMA response for node 489, address 0x1720500 with label b and size 32.
50788102001: system.acc0_datapath: Receiving DMA response for node 489, address 0x1720520 with label b and size 32.
50788107001: system.acc0_datapath: Receiving DMA response for node 489, address 0x1720540 with label b and size 32.
50788112001: system.acc0_datapath: Receiving DMA response for node 489, address 0x1720560 with label b and size 32.
50788117001: system.acc0_datapath: Receiving DMA response for node 489, address 0x1720580 with label b and size 32.
50788122001: system.acc0_datapath: Receiving DMA response for node 489, address 0x17205a0 with label b and size 32.
50788127001: system.acc0_datapath: Receiving DMA response for node 489, address 0x17205c0 with label b and size 32.
50788132001: system.acc0_datapath: Receiving DMA response for node 489, address 0x17205e0 with label b and size 32.
50788137001: system.acc0_datapath: Receiving DMA response for node 489, address 0x1720600 with label b and size 32.
50788142001: system.acc0_datapath: Receiving DMA response for node 489, address 0x1720620 with label b and size 32.
50788185501: system.acc0_datapath: Receiving DMA response for node 489, address 0x1720640 with label b and size 32.
50788190501: system.acc0_datapath: Receiving DMA response for node 489, address 0x1720660 with label b and size 32.
50788195501: system.acc0_datapath: Receiving DMA response for node 489, address 0x1720680 with label b and size 32.
50788200501: system.acc0_datapath: Receiving DMA response for node 489, address 0x17206a0 with label b and size 32.
50788205501: system.acc0_datapath: Receiving DMA response for node 489, address 0x17206c0 with label b and size 32.
50788210501: system.acc0_datapath: Receiving DMA response for node 489, address 0x17206e0 with label b and size 32.
50788215501: system.acc0_datapath: Receiving DMA response for node 489, address 0x1720700 with label b and size 32.
50788220501: system.acc0_datapath: Receiving DMA response for node 489, address 0x1720720 with label b and size 32.
50788225501: system.acc0_datapath: Receiving DMA response for node 489, address 0x1720740 with label b and size 32.
50788230501: system.acc0_datapath: Receiving DMA response for node 489, address 0x1720760 with label b and size 32.
50788235501: system.acc0_datapath: Receiving DMA response for node 489, address 0x1720780 with label b and size 32.
50788240501: system.acc0_datapath: Receiving DMA response for node 489, address 0x17207a0 with label b and size 32.
50788245501: system.acc0_datapath: Receiving DMA response for node 489, address 0x17207c0 with label b and size 32.
50788250501: system.acc0_datapath: Receiving DMA response for node 489, address 0x17207e0 with label b and size 32.
50788255501: system.acc0_datapath: Receiving DMA response for node 489, address 0x1720800 with label b and size 32.
50788260501: system.acc0_datapath: Receiving DMA response for node 489, address 0x1720820 with label b and size 32.
50788304001: system.acc0_datapath: Receiving DMA response for node 489, address 0x1720840 with label b and size 32.
50788304001: system.acc0_datapath: dmaCompleteCallback for node 489.
50788690000: system.acc0_datapath: Scheduling DMA load operation with node id 3339 with delay 384000
50789074000: system.acc0_datapath: Adding DMA node 3339 to DMA issue queue.
50789074000: system.acc0_datapath: issueDmaRequest: src_addr: 0x1704a40, dst_addr: 0x1721860, size: 1024
50789074000: system.acc0_datapath: DMA Accesses: array label b
50789074000: system.acc0_datapath: Increment the dmaLoad accesses of partition b with size 1024. 
50789127501: system.acc0_datapath: Receiving DMA response for node 3339, address 0x1721860 with label b and size 32.
50789132501: system.acc0_datapath: Receiving DMA response for node 3339, address 0x1721880 with label b and size 32.
50789137501: system.acc0_datapath: Receiving DMA response for node 3339, address 0x17218a0 with label b and size 32.
50789142501: system.acc0_datapath: Receiving DMA response for node 3339, address 0x17218c0 with label b and size 32.
50789147501: system.acc0_datapath: Receiving DMA response for node 3339, address 0x17218e0 with label b and size 32.
50789152501: system.acc0_datapath: Receiving DMA response for node 3339, address 0x1721900 with label b and size 32.
50789157501: system.acc0_datapath: Receiving DMA response for node 3339, address 0x1721920 with label b and size 32.
50789162501: system.acc0_datapath: Receiving DMA response for node 3339, address 0x1721940 with label b and size 32.
50789167501: system.acc0_datapath: Receiving DMA response for node 3339, address 0x1721960 with label b and size 32.
50789172501: system.acc0_datapath: Receiving DMA response for node 3339, address 0x1721980 with label b and size 32.
50789177501: system.acc0_datapath: Receiving DMA response for node 3339, address 0x17219a0 with label b and size 32.
50789182501: system.acc0_datapath: Receiving DMA response for node 3339, address 0x17219c0 with label b and size 32.
50789187501: system.acc0_datapath: Receiving DMA response for node 3339, address 0x17219e0 with label b and size 32.
50789192501: system.acc0_datapath: Receiving DMA response for node 3339, address 0x1721a00 with label b and size 32.
50789197501: system.acc0_datapath: Receiving DMA response for node 3339, address 0x1721a20 with label b and size 32.
50789241001: system.acc0_datapath: Receiving DMA response for node 3339, address 0x1721a40 with label b and size 32.
50789246001: system.acc0_datapath: Receiving DMA response for node 3339, address 0x1721a60 with label b and size 32.
50789251001: system.acc0_datapath: Receiving DMA response for node 3339, address 0x1721a80 with label b and size 32.
50789256001: system.acc0_datapath: Receiving DMA response for node 3339, address 0x1721aa0 with label b and size 32.
50789261001: system.acc0_datapath: Receiving DMA response for node 3339, address 0x1721ac0 with label b and size 32.
50789266001: system.acc0_datapath: Receiving DMA response for node 3339, address 0x1721ae0 with label b and size 32.
50789271001: system.acc0_datapath: Receiving DMA response for node 3339, address 0x1721b00 with label b and size 32.
50789276001: system.acc0_datapath: Receiving DMA response for node 3339, address 0x1721b20 with label b and size 32.
50789281001: system.acc0_datapath: Receiving DMA response for node 3339, address 0x1721b40 with label b and size 32.
50789286001: system.acc0_datapath: Receiving DMA response for node 3339, address 0x1721b60 with label b and size 32.
50789291001: system.acc0_datapath: Receiving DMA response for node 3339, address 0x1721b80 with label b and size 32.
50789296001: system.acc0_datapath: Receiving DMA response for node 3339, address 0x1721ba0 with label b and size 32.
50789301001: system.acc0_datapath: Receiving DMA response for node 3339, address 0x1721bc0 with label b and size 32.
50789306001: system.acc0_datapath: Receiving DMA response for node 3339, address 0x1721be0 with label b and size 32.
50789311001: system.acc0_datapath: Receiving DMA response for node 3339, address 0x1721c00 with label b and size 32.
50789316001: system.acc0_datapath: Receiving DMA response for node 3339, address 0x1721c20 with label b and size 32.
50789359501: system.acc0_datapath: Receiving DMA response for node 3339, address 0x1721c40 with label b and size 32.
50789359501: system.acc0_datapath: dmaCompleteCallback for node 3339.
50789829000: system.acc0_datapath: Scheduling DMA store operation with node id 32436 with delay 12000
50789841000: system.acc0_datapath: Adding DMA node 32436 to DMA issue queue.
50789841000: system.acc0_datapath: issueDmaRequest: src_addr: 0x172f8c0, dst_addr: 0x17053a0, size: 32
50789841000: system.acc0_datapath: DMA Accesses: array label results
50789841000: system.acc0_datapath: Increment the dmaStore accesses of partition results with size 32. 
50789934001: system.acc0_datapath: Receiving DMA response for node 32436, address 0x172f8c0 with label results and size 32.
50789934001: system.acc0_datapath: dmaCompleteCallback for node 32436.
===============================
        Aladdin Results        
===============================
Running : ./outputs/nnet_fwd
Top level function: smv_matrix_multiply_transpose_nc_vec_fxp
Cycle : 4514 cycles
Upsampled Cycle : 0 cycles
Avg Power: 274.346 mW
Idle FU Cycles: 3611 cycles
Avg FU Power: 5.92664 mW
Avg FU Dynamic Power: 2.66688 mW
Avg FU leakage Power: 3.25976 mW
Avg MEM Power: 268.419 mW
Avg MEM Dynamic Power: 249.508 mW
Avg MEM Leakage Power: 18.911 mW
Total Area: 1.41881e+06 uM^2
FU Area: 278920 uM^2
MEM Area: 1.13989e+06 uM^2
Num of Multipliers (32-bit): 10
Num of Adders (32-bit): 132
Num of Bit-wise Operators (32-bit): 35
Num of Shifters (32-bit): 18
Num of Registers (32-bit): 108
===============================
        Aladdin Results        
===============================
50789936000: system.acc0_datapath: Accelerator completed.
50789936000: system.acc0_datapath: Elapsed host seconds 0.50.
50789936000: system.acc0_datapath: Sent finished signal.
50789948001: system.acc0_datapath: cacheRespCallback for control signal access: 0x1ab93f0
50789950000: system.acc0_datapath: Woken up the CPU thread context.
Exiting @ tick 50984844000 because exiting with last active thread context
