gem5 Simulator System.  http://gem5.org
gem5 is copyrighted software; use the --copyright option for details.

gem5 compiled Sep  7 2022 07:15:41
gem5 started Nov  6 2022 23:21:26
gem5 executing on cda1b68e2153, pid 101
command line: /workspace/gem5-aladdin/src/aladdin/../../build/X86/gem5.opt --debug-flags=Aladdin,HybridDatapath --outdir=/workspace/smaug/experiments/sims/smaug_tests/tests/elu16-sys/outputs --stats-db-file=stats.db /workspace/gem5-aladdin/src/aladdin/../../configs/aladdin/aladdin_se.py --num-cpus=1 --mem-size=4GB --mem-type=LPDDR4_3200_2x16 --cpu-clock=2.5GHz --cpu-type=DerivO3CPU --ruby --access-backing-store --mem-channels=4 --l1d_size=64kB --l1i_size=64kB --l1d_assoc=4 --l1i_assoc=4 --l1d_hit_latency=2 --l1i_hit_latency=2 --l2_hit_latency=20 --l2_size=2MB --l2_assoc=16 --cacheline_size=32 --accel_cfg_file=gem5.cfg --fast-forward=10000000000 -c /workspace/smaug/experiments/../build/bin/smaug -o '/workspace/smaug/experiments/models/cifar100-elu/elu_smv_topo.pbtxt /workspace/smaug/experiments/models/cifar100-elu/elu_smv_params.pb --sample-level=high --gem5 --debug-level=0 --num-accels=1 --use-systolic-array'

Global frequency set at 1000000000000 ticks per second
-------------------------------
      Setting ScratchPad       
-------------------------------
      0: system: Registered accelerator 3
      0: system: Registered accelerator 4
      0: system.acc0_datapath: Registering stats.
Switch at instruction count:10000000000
Model topology file: /workspace/smaug/experiments/models/cifar100-elu/elu_smv_topo.pbtxt
Model parameters file: /workspace/smaug/experiments/models/cifar100-elu/elu_smv_params.pb
Sampling level: high, number of sample iterations: 1
Number of accelerators: 1
======================================================
      Loading the network model...
======================================================
Adding input (Data).
Adding data (Data).
Adding conv0_stack0 (Convolution3d).
Adding pool_stack0 (MaxPooling).
Adding data_1 (Data).
Adding conv0_stack1 (Convolution3d).
Adding data_2 (Data).
Adding conv1_stack1 (Convolution3d).
Adding pool_stack1 (MaxPooling).
Adding data_3 (Data).
Adding conv0_stack2 (Convolution3d).
Adding data_4 (Data).
Adding conv1_stack2 (Convolution3d).
Adding pool_stack2 (MaxPooling).
Adding data_5 (Data).
Adding conv0_stack3 (Convolution3d).
Adding data_6 (Data).
Adding conv1_stack3 (Convolution3d).
Adding pool_stack3 (MaxPooling).
Adding data_7 (Data).
Adding conv0_stack4 (Convolution3d).
Adding data_8 (Data).
Adding conv0_stack4_1 (Convolution3d).
Adding pool_stack4 (MaxPooling).
Adding data_9 (Data).
Adding conv0_stack5 (Convolution3d).
Adding data_10 (Data).
Adding conv0_stack6 (Convolution3d).
======================================================
      Summary of the network.
======================================================
____________________________________________________________________________________________
Layer (type)                             Output shape                 Parameters  
____________________________________________________________________________________________
data_10 (Data)                           (100, 1, 1, 300)                 0       
____________________________________________________________________________________________
data_9 (Data)                            (300, 1, 1, 300)                 0       
____________________________________________________________________________________________
data_8 (Data)                            (300, 2, 2, 280)                 0       
____________________________________________________________________________________________
data_7 (Data)                            (280, 1, 1, 280)                 0       
____________________________________________________________________________________________
data_6 (Data)                            (280, 2, 2, 260)                 0       
____________________________________________________________________________________________
data_5 (Data)                            (260, 1, 1, 260)                 0       
____________________________________________________________________________________________
data_4 (Data)                            (260, 2, 2, 240)                 0       
____________________________________________________________________________________________
data_3 (Data)                            (240, 1, 1, 240)                 0       
____________________________________________________________________________________________
data_2 (Data)                            (240, 3, 3, 192)                 0       
____________________________________________________________________________________________
data_1 (Data)                            (192, 1, 1, 192)                 0       
____________________________________________________________________________________________
data (Data)                              (192, 5, 5, 3)                   0       
____________________________________________________________________________________________
input (Data)                             (1, 32, 32, 3)                   0       
____________________________________________________________________________________________
conv0_stack0 (Convolution3d)             (1, 32, 32, 192)               14400     
____________________________________________________________________________________________
pool_stack0 (MaxPooling)                 (1, 16, 16, 192)                 0       
____________________________________________________________________________________________
conv0_stack1 (Convolution3d)             (1, 16, 16, 192)               36864     
____________________________________________________________________________________________
conv1_stack1 (Convolution3d)             (1, 16, 16, 240)               414720    
____________________________________________________________________________________________
pool_stack1 (MaxPooling)                 (1, 8, 8, 240)                   0       
____________________________________________________________________________________________
conv0_stack2 (Convolution3d)             (1, 8, 8, 240)                 57600     
____________________________________________________________________________________________
conv1_stack2 (Convolution3d)             (1, 8, 8, 260)                 249600    
____________________________________________________________________________________________
pool_stack2 (MaxPooling)                 (1, 4, 4, 260)                   0       
____________________________________________________________________________________________
conv0_stack3 (Convolution3d)             (1, 4, 4, 260)                 67600     
____________________________________________________________________________________________
conv1_stack3 (Convolution3d)             (1, 4, 4, 280)                 291200    
____________________________________________________________________________________________
pool_stack3 (MaxPooling)                 (1, 2, 2, 280)                   0       
____________________________________________________________________________________________
conv0_stack4 (Convolution3d)             (1, 2, 2, 280)                 78400     
____________________________________________________________________________________________
conv0_stack4_1 (Convolution3d)           (1, 2, 2, 300)                 336000    
____________________________________________________________________________________________
pool_stack4 (MaxPooling)                 (1, 1, 1, 300)                   0       
____________________________________________________________________________________________
conv0_stack5 (Convolution3d)             (1, 1, 1, 300)                 90000     
____________________________________________________________________________________________
conv0_stack6 (Convolution3d)             (1, 1, 1, 100)                 30000     
____________________________________________________________________________________________
======================================================
      Tiling operators of the network...
======================================================
Tiling conv0_stack0 (Convolution3d).
Tiling conv0_stack1 (Convolution3d).
Tiling conv0_stack2 (Convolution3d).
Tiling conv0_stack3 (Convolution3d).
Tiling conv0_stack4 (Convolution3d).
Tiling conv0_stack4_1 (Convolution3d).
Tiling conv0_stack5 (Convolution3d).
Tiling conv0_stack6 (Convolution3d).
Tiling conv1_stack1 (Convolution3d).
Tiling conv1_stack2 (Convolution3d).
Tiling conv1_stack3 (Convolution3d).
Tiling data (Data).
Tiling data_1 (Data).
Tiling data_10 (Data).
Tiling data_2 (Data).
Tiling data_3 (Data).
Tiling data_4 (Data).
Tiling data_5 (Data).
Tiling data_6 (Data).
Tiling data_7 (Data).
Tiling data_8 (Data).
Tiling data_9 (Data).
Tiling input (Data).
Tiling pool_stack0 (MaxPooling).
Tiling pool_stack1 (MaxPooling).
Tiling pool_stack2 (MaxPooling).
Tiling pool_stack3 (MaxPooling).
Tiling pool_stack4 (MaxPooling).
Switched CPUS @ tick 185872880000
switching cpus
**** REAL SIMULATION ****
======================================================
      Scheduling operators of the network...
======================================================
Scheduling data (Data).
Scheduling data_1 (Data).
Scheduling data_10 (Data).
Scheduling data_2 (Data).
Scheduling data_3 (Data).
Scheduling data_4 (Data).
Scheduling data_5 (Data).
Scheduling data_6 (Data).
Scheduling data_7 (Data).
Scheduling data_8 (Data).
Scheduling data_9 (Data).
Scheduling input (Data).
Scheduling conv0_stack0 (Convolution3d).
Scheduling pool_stack0 (MaxPooling).
192843477000: system.acc0_datapath: Setting host_inputs to memory type dma.
192843528000: system.acc0_datapath: Setting host_results to memory type dma.
192846499000: system.acc0_datapath: Inserting array label mapping host_inputs -> vpn 0xb627a0, size 32768.
192846499000: system.acc0_datapath: Mapping vaddr 0xb627a0 -> paddr 0x28307a0.
192846499000: system.acc0_datapath: Inserting TLB entry vpn 0xb62000 -> ppn 0x2830000.
192846499000: system.acc0_datapath: Mapping vaddr 0xb637a0 -> paddr 0x28317a0.
192846499000: system.acc0_datapath: Inserting TLB entry vpn 0xb63000 -> ppn 0x2831000.
192846499000: system.acc0_datapath: Mapping vaddr 0xb647a0 -> paddr 0x28327a0.
192846499000: system.acc0_datapath: Inserting TLB entry vpn 0xb64000 -> ppn 0x2832000.
192846499000: system.acc0_datapath: Mapping vaddr 0xb657a0 -> paddr 0x28337a0.
192846499000: system.acc0_datapath: Inserting TLB entry vpn 0xb65000 -> ppn 0x2833000.
192846499000: system.acc0_datapath: Mapping vaddr 0xb667a0 -> paddr 0x28347a0.
192846499000: system.acc0_datapath: Inserting TLB entry vpn 0xb66000 -> ppn 0x2834000.
192846499000: system.acc0_datapath: Mapping vaddr 0xb677a0 -> paddr 0x28357a0.
192846499000: system.acc0_datapath: Inserting TLB entry vpn 0xb67000 -> ppn 0x2835000.
192846499000: system.acc0_datapath: Mapping vaddr 0xb687a0 -> paddr 0x28367a0.
192846499000: system.acc0_datapath: Inserting TLB entry vpn 0xb68000 -> ppn 0x2836000.
192846499000: system.acc0_datapath: Mapping vaddr 0xb697a0 -> paddr 0x28377a0.
192846499000: system.acc0_datapath: Inserting TLB entry vpn 0xb69000 -> ppn 0x2837000.
192846499000: system.acc0_datapath: Mapping vaddr 0xb6a7a0 -> paddr 0x28387a0.
192846499000: system.acc0_datapath: Inserting TLB entry vpn 0xb6a000 -> ppn 0x2838000.
192848166000: system.acc0_datapath: Inserting array label mapping host_results -> vpn 0xbc3360, size 8192.
192848166000: system.acc0_datapath: Mapping vaddr 0xbc3360 -> paddr 0x2891360.
192848166000: system.acc0_datapath: Inserting TLB entry vpn 0xbc3000 -> ppn 0x2891000.
192848166000: system.acc0_datapath: Mapping vaddr 0xbc4360 -> paddr 0x2892360.
192848166000: system.acc0_datapath: Inserting TLB entry vpn 0xbc4000 -> ppn 0x2892000.
192848166000: system.acc0_datapath: Mapping vaddr 0xbc5360 -> paddr 0x2893360.
192848166000: system.acc0_datapath: Inserting TLB entry vpn 0xbc5000 -> ppn 0x2893000.
192848985000: system.acc0_datapath: Activating accelerator id 3
-------------------------------
      Generating DDDG          
-------------------------------
-------------------------------
Num of Nodes: 234132
Num of Edges: 612984
Num of Reg Edges: 371435
Num of MEM Edges: 7424
Num of Control Edges: 234131
-------------------------------
-------------------------------
    Initializing BaseDatapath      
-------------------------------
 Top level: smv_maxpooling_nhwc_vec_fxp
=============================================
      Optimizing...            ./outputs/nnet_fwd
=============================================
-------------------------------
  Remove PHI and Convert Nodes 
-------------------------------
  Removing 236382 edges.
  Adding 170109 new edges.
  Removing 3111 isolated nodes.
-------------------------------
  Remove Induction Dependence  
-------------------------------
-------------------------------
       Init Base Address       
-------------------------------
-------------------------------
     Init DMA Base Address     
-------------------------------
-------------------------------
        Mem to Reg Conv        
-------------------------------
-------------------------------
      ScratchPad Partition     
-------------------------------
-------------------------------
         Loop Flatten          
-------------------------------
  Removing 18432 isolated nodes.
  Removing 18432 isolated nodes.
-------------------------------
         Loop Unrolling        
-------------------------------
  Adding 334549 new edges.
  Removing 2496 isolated nodes.
  Removing 256 isolated nodes.
-------------------------------
          Load Buffer          
-------------------------------
  Adding 0 new edges.
  Removing 0 edges.
  Removing 0 isolated nodes.
-------------------------------
          Store Buffer         
-------------------------------
  Adding 0 new edges.
  Removing 0 isolated nodes.
  Removing 0 isolated nodes.
-------------------------------
    Remove Repeated Stores     
-------------------------------
-------------------------------
      Memory Ambiguation       
-------------------------------
  Adding 39 new edges.
-------------------------------
     Tree Height Reduction     
-------------------------------
  Removing 0 edges.
  Adding 0 new edges.
  Removing 0 isolated nodes.
-------------------------------
  Fuse register loads/stores   
-------------------------------
  Removing 17 edges.
  Adding 17 new edges.
  Removing 0 isolated nodes.
-------------------------------
   Fuse consecutive branches   
-------------------------------
  Removing 20241 edges.
  Adding 20241 new edges.
  Removing 0 isolated nodes.
-------------------------------
      Per Loop Pipelining      
-------------------------------
  Adding 91609 new edges.
  Removing 96317 edges.
  Removing 0 isolated nodes.
-------------------------------
         Loop Pipelining        
-------------------------------
=============================================
      Scheduling...            ./outputs/nnet_fwd
=============================================
  Total connected nodes: 168694
  Total edges: 742992
=============================================
192848995000: system.acc0_datapath: Scheduling DMA load operation with node id 81 with delay 1536000
192850531000: system.acc0_datapath: Adding DMA node 81 to DMA issue queue.
192850531000: system.acc0_datapath: issueDmaRequest: src_addr: 0x12b5920, dst_addr: 0xdb8ee0, size: 4096
192850531000: system.acc0_datapath: DMA Accesses: array label inputs
192850531000: system.acc0_datapath: Increment the dmaLoad accesses of partition inputs with size 4096. 
192850562001: system.acc0_datapath: Receiving DMA response for node 81, address 0xdb8ee0 with label inputs and size 32.
192850563501: system.acc0_datapath: Receiving DMA response for node 81, address 0xdb8f00 with label inputs and size 32.
192850565001: system.acc0_datapath: Receiving DMA response for node 81, address 0xdb8f20 with label inputs and size 32.
192850566501: system.acc0_datapath: Receiving DMA response for node 81, address 0xdb8f40 with label inputs and size 32.
192850568001: system.acc0_datapath: Receiving DMA response for node 81, address 0xdb8f60 with label inputs and size 32.
192850569501: system.acc0_datapath: Receiving DMA response for node 81, address 0xdb8f80 with label inputs and size 32.
192850571001: system.acc0_datapath: Receiving DMA response for node 81, address 0xdb8fa0 with label inputs and size 32.
192850572501: system.acc0_datapath: Receiving DMA response for node 81, address 0xdb8fc0 with label inputs and size 32.
192850574001: system.acc0_datapath: Receiving DMA response for node 81, address 0xdb8fe0 with label inputs and size 32.
192850575501: system.acc0_datapath: Receiving DMA response for node 81, address 0xdb9000 with label inputs and size 32.
192850577501: system.acc0_datapath: Receiving DMA response for node 81, address 0xdb9020 with label inputs and size 32.
192850579001: system.acc0_datapath: Receiving DMA response for node 81, address 0xdb9040 with label inputs and size 32.
192850595001: system.acc0_datapath: Receiving DMA response for node 81, address 0xdb9060 with label inputs and size 32.
192850596501: system.acc0_datapath: Receiving DMA response for node 81, address 0xdb9080 with label inputs and size 32.
192850599001: system.acc0_datapath: Receiving DMA response for node 81, address 0xdb90a0 with label inputs and size 32.
192850600501: system.acc0_datapath: Receiving DMA response for node 81, address 0xdb90c0 with label inputs and size 32.
192850602001: system.acc0_datapath: Receiving DMA response for node 81, address 0xdb90e0 with label inputs and size 32.
192850603501: system.acc0_datapath: Receiving DMA response for node 81, address 0xdb9100 with label inputs and size 32.
192850605001: system.acc0_datapath: Receiving DMA response for node 81, address 0xdb9120 with label inputs and size 32.
192850606501: system.acc0_datapath: Receiving DMA response for node 81, address 0xdb9140 with label inputs and size 32.
192850608001: system.acc0_datapath: Receiving DMA response for node 81, address 0xdb9160 with label inputs and size 32.
192850609501: system.acc0_datapath: Receiving DMA response for node 81, address 0xdb9180 with label inputs and size 32.
192850611001: system.acc0_datapath: Receiving DMA response for node 81, address 0xdb91a0 with label inputs and size 32.
192850612501: system.acc0_datapath: Receiving DMA response for node 81, address 0xdb91c0 with label inputs and size 32.
192850614001: system.acc0_datapath: Receiving DMA response for node 81, address 0xdb91e0 with label inputs and size 32.
192850615501: system.acc0_datapath: Receiving DMA response for node 81, address 0xdb9200 with label inputs and size 32.
192850635501: system.acc0_datapath: Receiving DMA response for node 81, address 0xdb9220 with label inputs and size 32.
192850637001: system.acc0_datapath: Receiving DMA response for node 81, address 0xdb9240 with label inputs and size 32.
192850638501: system.acc0_datapath: Receiving DMA response for node 81, address 0xdb9260 with label inputs and size 32.
192850640001: system.acc0_datapath: Receiving DMA response for node 81, address 0xdb9280 with label inputs and size 32.
192850641501: system.acc0_datapath: Receiving DMA response for node 81, address 0xdb92a0 with label inputs and size 32.
192850643001: system.acc0_datapath: Receiving DMA response for node 81, address 0xdb92c0 with label inputs and size 32.
192850644501: system.acc0_datapath: Receiving DMA response for node 81, address 0xdb92e0 with label inputs and size 32.
192850646001: system.acc0_datapath: Receiving DMA response for node 81, address 0xdb9300 with label inputs and size 32.
192850647501: system.acc0_datapath: Receiving DMA response for node 81, address 0xdb9320 with label inputs and size 32.
192850649001: system.acc0_datapath: Receiving DMA response for node 81, address 0xdb9340 with label inputs and size 32.
192850650501: system.acc0_datapath: Receiving DMA response for node 81, address 0xdb9360 with label inputs and size 32.
192850652001: system.acc0_datapath: Receiving DMA response for node 81, address 0xdb9380 with label inputs and size 32.
192850653501: system.acc0_datapath: Receiving DMA response for node 81, address 0xdb93a0 with label inputs and size 32.
192850655001: system.acc0_datapath: Receiving DMA response for node 81, address 0xdb93c0 with label inputs and size 32.
192850675001: system.acc0_datapath: Receiving DMA response for node 81, address 0xdb93e0 with label inputs and size 32.
192850676501: system.acc0_datapath: Receiving DMA response for node 81, address 0xdb9400 with label inputs and size 32.
192850678001: system.acc0_datapath: Receiving DMA response for node 81, address 0xdb9420 with label inputs and size 32.
192850679501: system.acc0_datapath: Receiving DMA response for node 81, address 0xdb9440 with label inputs and size 32.
192850681001: system.acc0_datapath: Receiving DMA response for node 81, address 0xdb9460 with label inputs and size 32.
192850682501: system.acc0_datapath: Receiving DMA response for node 81, address 0xdb9480 with label inputs and size 32.
192850684001: system.acc0_datapath: Receiving DMA response for node 81, address 0xdb94a0 with label inputs and size 32.
192850685501: system.acc0_datapath: Receiving DMA response for node 81, address 0xdb94c0 with label inputs and size 32.
192850687001: system.acc0_datapath: Receiving DMA response for node 81, address 0xdb94e0 with label inputs and size 32.
192850688501: system.acc0_datapath: Receiving DMA response for node 81, address 0xdb9500 with label inputs and size 32.
192850690001: system.acc0_datapath: Receiving DMA response for node 81, address 0xdb9520 with label inputs and size 32.
192850691501: system.acc0_datapath: Receiving DMA response for node 81, address 0xdb9540 with label inputs and size 32.
192850693001: system.acc0_datapath: Receiving DMA response for node 81, address 0xdb9560 with label inputs and size 32.
192850694501: system.acc0_datapath: Receiving DMA response for node 81, address 0xdb9580 with label inputs and size 32.
192850714501: system.acc0_datapath: Receiving DMA response for node 81, address 0xdb95a0 with label inputs and size 32.
192850716001: system.acc0_datapath: Receiving DMA response for node 81, address 0xdb95c0 with label inputs and size 32.
192850717501: system.acc0_datapath: Receiving DMA response for node 81, address 0xdb95e0 with label inputs and size 32.
192850719001: system.acc0_datapath: Receiving DMA response for node 81, address 0xdb9600 with label inputs and size 32.
192850720501: system.acc0_datapath: Receiving DMA response for node 81, address 0xdb9620 with label inputs and size 32.
192850722001: system.acc0_datapath: Receiving DMA response for node 81, address 0xdb9640 with label inputs and size 32.
192850723501: system.acc0_datapath: Receiving DMA response for node 81, address 0xdb9660 with label inputs and size 32.
192850725001: system.acc0_datapath: Receiving DMA response for node 81, address 0xdb9680 with label inputs and size 32.
192850726501: system.acc0_datapath: Receiving DMA response for node 81, address 0xdb96a0 with label inputs and size 32.
192850728001: system.acc0_datapath: Receiving DMA response for node 81, address 0xdb96c0 with label inputs and size 32.
192850729501: system.acc0_datapath: Receiving DMA response for node 81, address 0xdb96e0 with label inputs and size 32.
192850731001: system.acc0_datapath: Receiving DMA response for node 81, address 0xdb9700 with label inputs and size 32.
192850732501: system.acc0_datapath: Receiving DMA response for node 81, address 0xdb9720 with label inputs and size 32.
192850734001: system.acc0_datapath: Receiving DMA response for node 81, address 0xdb9740 with label inputs and size 32.
192850754001: system.acc0_datapath: Receiving DMA response for node 81, address 0xdb9760 with label inputs and size 32.
192850755501: system.acc0_datapath: Receiving DMA response for node 81, address 0xdb9780 with label inputs and size 32.
192850757001: system.acc0_datapath: Receiving DMA response for node 81, address 0xdb97a0 with label inputs and size 32.
192850758501: system.acc0_datapath: Receiving DMA response for node 81, address 0xdb97c0 with label inputs and size 32.
192850760001: system.acc0_datapath: Receiving DMA response for node 81, address 0xdb97e0 with label inputs and size 32.
192850761501: system.acc0_datapath: Receiving DMA response for node 81, address 0xdb9800 with label inputs and size 32.
192850763001: system.acc0_datapath: Receiving DMA response for node 81, address 0xdb9820 with label inputs and size 32.
192850764501: system.acc0_datapath: Receiving DMA response for node 81, address 0xdb9840 with label inputs and size 32.
192850766001: system.acc0_datapath: Receiving DMA response for node 81, address 0xdb9860 with label inputs and size 32.
192850767501: system.acc0_datapath: Receiving DMA response for node 81, address 0xdb9880 with label inputs and size 32.
192850769001: system.acc0_datapath: Receiving DMA response for node 81, address 0xdb98a0 with label inputs and size 32.
192850771001: system.acc0_datapath: Receiving DMA response for node 81, address 0xdb98c0 with label inputs and size 32.
192850772501: system.acc0_datapath: Receiving DMA response for node 81, address 0xdb98e0 with label inputs and size 32.
192850774001: system.acc0_datapath: Receiving DMA response for node 81, address 0xdb9900 with label inputs and size 32.
192850788501: system.acc0_datapath: Receiving DMA response for node 81, address 0xdb9920 with label inputs and size 32.
192850790001: system.acc0_datapath: Receiving DMA response for node 81, address 0xdb9940 with label inputs and size 32.
192850794001: system.acc0_datapath: Receiving DMA response for node 81, address 0xdb9960 with label inputs and size 32.
192850795501: system.acc0_datapath: Receiving DMA response for node 81, address 0xdb9980 with label inputs and size 32.
192850797001: system.acc0_datapath: Receiving DMA response for node 81, address 0xdb99a0 with label inputs and size 32.
192850798501: system.acc0_datapath: Receiving DMA response for node 81, address 0xdb99c0 with label inputs and size 32.
192850800001: system.acc0_datapath: Receiving DMA response for node 81, address 0xdb99e0 with label inputs and size 32.
192850801501: system.acc0_datapath: Receiving DMA response for node 81, address 0xdb9a00 with label inputs and size 32.
192850803001: system.acc0_datapath: Receiving DMA response for node 81, address 0xdb9a20 with label inputs and size 32.
192850804501: system.acc0_datapath: Receiving DMA response for node 81, address 0xdb9a40 with label inputs and size 32.
192850806001: system.acc0_datapath: Receiving DMA response for node 81, address 0xdb9a60 with label inputs and size 32.
192850807501: system.acc0_datapath: Receiving DMA response for node 81, address 0xdb9a80 with label inputs and size 32.
192850809001: system.acc0_datapath: Receiving DMA response for node 81, address 0xdb9aa0 with label inputs and size 32.
192850810501: system.acc0_datapath: Receiving DMA response for node 81, address 0xdb9ac0 with label inputs and size 32.
192850830501: system.acc0_datapath: Receiving DMA response for node 81, address 0xdb9ae0 with label inputs and size 32.
192850832001: system.acc0_datapath: Receiving DMA response for node 81, address 0xdb9b00 with label inputs and size 32.
192850833501: system.acc0_datapath: Receiving DMA response for node 81, address 0xdb9b20 with label inputs and size 32.
192850835001: system.acc0_datapath: Receiving DMA response for node 81, address 0xdb9b40 with label inputs and size 32.
192850836501: system.acc0_datapath: Receiving DMA response for node 81, address 0xdb9b60 with label inputs and size 32.
192850838001: system.acc0_datapath: Receiving DMA response for node 81, address 0xdb9b80 with label inputs and size 32.
192850839501: system.acc0_datapath: Receiving DMA response for node 81, address 0xdb9ba0 with label inputs and size 32.
192850841001: system.acc0_datapath: Receiving DMA response for node 81, address 0xdb9bc0 with label inputs and size 32.
192850842501: system.acc0_datapath: Receiving DMA response for node 81, address 0xdb9be0 with label inputs and size 32.
192850844001: system.acc0_datapath: Receiving DMA response for node 81, address 0xdb9c00 with label inputs and size 32.
192850845501: system.acc0_datapath: Receiving DMA response for node 81, address 0xdb9c20 with label inputs and size 32.
192850847001: system.acc0_datapath: Receiving DMA response for node 81, address 0xdb9c40 with label inputs and size 32.
192850848501: system.acc0_datapath: Receiving DMA response for node 81, address 0xdb9c60 with label inputs and size 32.
192850850001: system.acc0_datapath: Receiving DMA response for node 81, address 0xdb9c80 with label inputs and size 32.
192850870001: system.acc0_datapath: Receiving DMA response for node 81, address 0xdb9ca0 with label inputs and size 32.
192850871501: system.acc0_datapath: Receiving DMA response for node 81, address 0xdb9cc0 with label inputs and size 32.
192850873001: system.acc0_datapath: Receiving DMA response for node 81, address 0xdb9ce0 with label inputs and size 32.
192850874501: system.acc0_datapath: Receiving DMA response for node 81, address 0xdb9d00 with label inputs and size 32.
192850876001: system.acc0_datapath: Receiving DMA response for node 81, address 0xdb9d20 with label inputs and size 32.
192850877501: system.acc0_datapath: Receiving DMA response for node 81, address 0xdb9d40 with label inputs and size 32.
192850879001: system.acc0_datapath: Receiving DMA response for node 81, address 0xdb9d60 with label inputs and size 32.
192850880501: system.acc0_datapath: Receiving DMA response for node 81, address 0xdb9d80 with label inputs and size 32.
192850882001: system.acc0_datapath: Receiving DMA response for node 81, address 0xdb9da0 with label inputs and size 32.
192850883501: system.acc0_datapath: Receiving DMA response for node 81, address 0xdb9dc0 with label inputs and size 32.
192850885001: system.acc0_datapath: Receiving DMA response for node 81, address 0xdb9de0 with label inputs and size 32.
192850886501: system.acc0_datapath: Receiving DMA response for node 81, address 0xdb9e00 with label inputs and size 32.
192850888001: system.acc0_datapath: Receiving DMA response for node 81, address 0xdb9e20 with label inputs and size 32.
192850889501: system.acc0_datapath: Receiving DMA response for node 81, address 0xdb9e40 with label inputs and size 32.
192850891001: system.acc0_datapath: Receiving DMA response for node 81, address 0xdb9e60 with label inputs and size 32.
192850892501: system.acc0_datapath: Receiving DMA response for node 81, address 0xdb9e80 with label inputs and size 32.
192850912501: system.acc0_datapath: Receiving DMA response for node 81, address 0xdb9ea0 with label inputs and size 32.
192850914001: system.acc0_datapath: Receiving DMA response for node 81, address 0xdb9ec0 with label inputs and size 32.
192850914001: system.acc0_datapath: dmaCompleteCallback for node 81.
192851300000: system.acc0_datapath: Scheduling DMA load operation with node id 2931 with delay 1536000
192852836000: system.acc0_datapath: Adding DMA node 2931 to DMA issue queue.
192852836000: system.acc0_datapath: issueDmaRequest: src_addr: 0x12b6920, dst_addr: 0xdbaee0, size: 4096
192852836000: system.acc0_datapath: DMA Accesses: array label inputs
192852836000: system.acc0_datapath: Increment the dmaLoad accesses of partition inputs with size 4096. 
192852867001: system.acc0_datapath: Receiving DMA response for node 2931, address 0xdbaee0 with label inputs and size 32.
192852868501: system.acc0_datapath: Receiving DMA response for node 2931, address 0xdbaf00 with label inputs and size 32.
192852870001: system.acc0_datapath: Receiving DMA response for node 2931, address 0xdbaf20 with label inputs and size 32.
192852871501: system.acc0_datapath: Receiving DMA response for node 2931, address 0xdbaf40 with label inputs and size 32.
192852873001: system.acc0_datapath: Receiving DMA response for node 2931, address 0xdbaf60 with label inputs and size 32.
192852874501: system.acc0_datapath: Receiving DMA response for node 2931, address 0xdbaf80 with label inputs and size 32.
192852876001: system.acc0_datapath: Receiving DMA response for node 2931, address 0xdbafa0 with label inputs and size 32.
192852877501: system.acc0_datapath: Receiving DMA response for node 2931, address 0xdbafc0 with label inputs and size 32.
192852879001: system.acc0_datapath: Receiving DMA response for node 2931, address 0xdbafe0 with label inputs and size 32.
192852880501: system.acc0_datapath: Receiving DMA response for node 2931, address 0xdbb000 with label inputs and size 32.
192852900501: system.acc0_datapath: Receiving DMA response for node 2931, address 0xdbb020 with label inputs and size 32.
192852902001: system.acc0_datapath: Receiving DMA response for node 2931, address 0xdbb040 with label inputs and size 32.
192852903501: system.acc0_datapath: Receiving DMA response for node 2931, address 0xdbb060 with label inputs and size 32.
192852905001: system.acc0_datapath: Receiving DMA response for node 2931, address 0xdbb080 with label inputs and size 32.
192852906501: system.acc0_datapath: Receiving DMA response for node 2931, address 0xdbb0a0 with label inputs and size 32.
192852908001: system.acc0_datapath: Receiving DMA response for node 2931, address 0xdbb0c0 with label inputs and size 32.
192852909501: system.acc0_datapath: Receiving DMA response for node 2931, address 0xdbb0e0 with label inputs and size 32.
192852911001: system.acc0_datapath: Receiving DMA response for node 2931, address 0xdbb100 with label inputs and size 32.
192852913001: system.acc0_datapath: Receiving DMA response for node 2931, address 0xdbb120 with label inputs and size 32.
192852914501: system.acc0_datapath: Receiving DMA response for node 2931, address 0xdbb140 with label inputs and size 32.
192852916001: system.acc0_datapath: Receiving DMA response for node 2931, address 0xdbb160 with label inputs and size 32.
192852917501: system.acc0_datapath: Receiving DMA response for node 2931, address 0xdbb180 with label inputs and size 32.
192852919001: system.acc0_datapath: Receiving DMA response for node 2931, address 0xdbb1a0 with label inputs and size 32.
192852920501: system.acc0_datapath: Receiving DMA response for node 2931, address 0xdbb1c0 with label inputs and size 32.
192852931001: system.acc0_datapath: Receiving DMA response for node 2931, address 0xdbb1e0 with label inputs and size 32.
192852932501: system.acc0_datapath: Receiving DMA response for node 2931, address 0xdbb200 with label inputs and size 32.
192852940501: system.acc0_datapath: Receiving DMA response for node 2931, address 0xdbb220 with label inputs and size 32.
192852942001: system.acc0_datapath: Receiving DMA response for node 2931, address 0xdbb240 with label inputs and size 32.
192852943501: system.acc0_datapath: Receiving DMA response for node 2931, address 0xdbb260 with label inputs and size 32.
192852945001: system.acc0_datapath: Receiving DMA response for node 2931, address 0xdbb280 with label inputs and size 32.
192852946501: system.acc0_datapath: Receiving DMA response for node 2931, address 0xdbb2a0 with label inputs and size 32.
192852948001: system.acc0_datapath: Receiving DMA response for node 2931, address 0xdbb2c0 with label inputs and size 32.
192852949501: system.acc0_datapath: Receiving DMA response for node 2931, address 0xdbb2e0 with label inputs and size 32.
192852951001: system.acc0_datapath: Receiving DMA response for node 2931, address 0xdbb300 with label inputs and size 32.
192852952501: system.acc0_datapath: Receiving DMA response for node 2931, address 0xdbb320 with label inputs and size 32.
192852954001: system.acc0_datapath: Receiving DMA response for node 2931, address 0xdbb340 with label inputs and size 32.
192852955501: system.acc0_datapath: Receiving DMA response for node 2931, address 0xdbb360 with label inputs and size 32.
192852957001: system.acc0_datapath: Receiving DMA response for node 2931, address 0xdbb380 with label inputs and size 32.
192852977001: system.acc0_datapath: Receiving DMA response for node 2931, address 0xdbb3a0 with label inputs and size 32.
192852978501: system.acc0_datapath: Receiving DMA response for node 2931, address 0xdbb3c0 with label inputs and size 32.
192852980001: system.acc0_datapath: Receiving DMA response for node 2931, address 0xdbb3e0 with label inputs and size 32.
192852981501: system.acc0_datapath: Receiving DMA response for node 2931, address 0xdbb400 with label inputs and size 32.
192852983001: system.acc0_datapath: Receiving DMA response for node 2931, address 0xdbb420 with label inputs and size 32.
192852984501: system.acc0_datapath: Receiving DMA response for node 2931, address 0xdbb440 with label inputs and size 32.
192852986001: system.acc0_datapath: Receiving DMA response for node 2931, address 0xdbb460 with label inputs and size 32.
192852987501: system.acc0_datapath: Receiving DMA response for node 2931, address 0xdbb480 with label inputs and size 32.
192852989001: system.acc0_datapath: Receiving DMA response for node 2931, address 0xdbb4a0 with label inputs and size 32.
192852990501: system.acc0_datapath: Receiving DMA response for node 2931, address 0xdbb4c0 with label inputs and size 32.
192852992001: system.acc0_datapath: Receiving DMA response for node 2931, address 0xdbb4e0 with label inputs and size 32.
192852993501: system.acc0_datapath: Receiving DMA response for node 2931, address 0xdbb500 with label inputs and size 32.
192852995001: system.acc0_datapath: Receiving DMA response for node 2931, address 0xdbb520 with label inputs and size 32.
192852996501: system.acc0_datapath: Receiving DMA response for node 2931, address 0xdbb540 with label inputs and size 32.
192853016501: system.acc0_datapath: Receiving DMA response for node 2931, address 0xdbb560 with label inputs and size 32.
192853018001: system.acc0_datapath: Receiving DMA response for node 2931, address 0xdbb580 with label inputs and size 32.
192853019501: system.acc0_datapath: Receiving DMA response for node 2931, address 0xdbb5a0 with label inputs and size 32.
192853021001: system.acc0_datapath: Receiving DMA response for node 2931, address 0xdbb5c0 with label inputs and size 32.
192853022501: system.acc0_datapath: Receiving DMA response for node 2931, address 0xdbb5e0 with label inputs and size 32.
192853024001: system.acc0_datapath: Receiving DMA response for node 2931, address 0xdbb600 with label inputs and size 32.
192853025501: system.acc0_datapath: Receiving DMA response for node 2931, address 0xdbb620 with label inputs and size 32.
192853027001: system.acc0_datapath: Receiving DMA response for node 2931, address 0xdbb640 with label inputs and size 32.
192853028501: system.acc0_datapath: Receiving DMA response for node 2931, address 0xdbb660 with label inputs and size 32.
192853030001: system.acc0_datapath: Receiving DMA response for node 2931, address 0xdbb680 with label inputs and size 32.
192853031501: system.acc0_datapath: Receiving DMA response for node 2931, address 0xdbb6a0 with label inputs and size 32.
192853033001: system.acc0_datapath: Receiving DMA response for node 2931, address 0xdbb6c0 with label inputs and size 32.
192853034501: system.acc0_datapath: Receiving DMA response for node 2931, address 0xdbb6e0 with label inputs and size 32.
192853036001: system.acc0_datapath: Receiving DMA response for node 2931, address 0xdbb700 with label inputs and size 32.
192853056001: system.acc0_datapath: Receiving DMA response for node 2931, address 0xdbb720 with label inputs and size 32.
192853057501: system.acc0_datapath: Receiving DMA response for node 2931, address 0xdbb740 with label inputs and size 32.
192853059001: system.acc0_datapath: Receiving DMA response for node 2931, address 0xdbb760 with label inputs and size 32.
192853060501: system.acc0_datapath: Receiving DMA response for node 2931, address 0xdbb780 with label inputs and size 32.
192853062001: system.acc0_datapath: Receiving DMA response for node 2931, address 0xdbb7a0 with label inputs and size 32.
192853063501: system.acc0_datapath: Receiving DMA response for node 2931, address 0xdbb7c0 with label inputs and size 32.
192853065001: system.acc0_datapath: Receiving DMA response for node 2931, address 0xdbb7e0 with label inputs and size 32.
192853066501: system.acc0_datapath: Receiving DMA response for node 2931, address 0xdbb800 with label inputs and size 32.
192853068001: system.acc0_datapath: Receiving DMA response for node 2931, address 0xdbb820 with label inputs and size 32.
192853069501: system.acc0_datapath: Receiving DMA response for node 2931, address 0xdbb840 with label inputs and size 32.
192853071001: system.acc0_datapath: Receiving DMA response for node 2931, address 0xdbb860 with label inputs and size 32.
192853072501: system.acc0_datapath: Receiving DMA response for node 2931, address 0xdbb880 with label inputs and size 32.
192853074001: system.acc0_datapath: Receiving DMA response for node 2931, address 0xdbb8a0 with label inputs and size 32.
192853075501: system.acc0_datapath: Receiving DMA response for node 2931, address 0xdbb8c0 with label inputs and size 32.
192853095501: system.acc0_datapath: Receiving DMA response for node 2931, address 0xdbb8e0 with label inputs and size 32.
192853097001: system.acc0_datapath: Receiving DMA response for node 2931, address 0xdbb900 with label inputs and size 32.
192853098501: system.acc0_datapath: Receiving DMA response for node 2931, address 0xdbb920 with label inputs and size 32.
192853100001: system.acc0_datapath: Receiving DMA response for node 2931, address 0xdbb940 with label inputs and size 32.
192853101501: system.acc0_datapath: Receiving DMA response for node 2931, address 0xdbb960 with label inputs and size 32.
192853103001: system.acc0_datapath: Receiving DMA response for node 2931, address 0xdbb980 with label inputs and size 32.
192853104501: system.acc0_datapath: Receiving DMA response for node 2931, address 0xdbb9a0 with label inputs and size 32.
192853106501: system.acc0_datapath: Receiving DMA response for node 2931, address 0xdbb9c0 with label inputs and size 32.
192853108001: system.acc0_datapath: Receiving DMA response for node 2931, address 0xdbb9e0 with label inputs and size 32.
192853109501: system.acc0_datapath: Receiving DMA response for node 2931, address 0xdbba00 with label inputs and size 32.
192853111001: system.acc0_datapath: Receiving DMA response for node 2931, address 0xdbba20 with label inputs and size 32.
192853112501: system.acc0_datapath: Receiving DMA response for node 2931, address 0xdbba40 with label inputs and size 32.
192853114001: system.acc0_datapath: Receiving DMA response for node 2931, address 0xdbba60 with label inputs and size 32.
192853115501: system.acc0_datapath: Receiving DMA response for node 2931, address 0xdbba80 with label inputs and size 32.
192853124001: system.acc0_datapath: Receiving DMA response for node 2931, address 0xdbbaa0 with label inputs and size 32.
192853125501: system.acc0_datapath: Receiving DMA response for node 2931, address 0xdbbac0 with label inputs and size 32.
192853135501: system.acc0_datapath: Receiving DMA response for node 2931, address 0xdbbae0 with label inputs and size 32.
192853137001: system.acc0_datapath: Receiving DMA response for node 2931, address 0xdbbb00 with label inputs and size 32.
192853138501: system.acc0_datapath: Receiving DMA response for node 2931, address 0xdbbb20 with label inputs and size 32.
192853140001: system.acc0_datapath: Receiving DMA response for node 2931, address 0xdbbb40 with label inputs and size 32.
192853141501: system.acc0_datapath: Receiving DMA response for node 2931, address 0xdbbb60 with label inputs and size 32.
192853143001: system.acc0_datapath: Receiving DMA response for node 2931, address 0xdbbb80 with label inputs and size 32.
192853144501: system.acc0_datapath: Receiving DMA response for node 2931, address 0xdbbba0 with label inputs and size 32.
192853146001: system.acc0_datapath: Receiving DMA response for node 2931, address 0xdbbbc0 with label inputs and size 32.
192853147501: system.acc0_datapath: Receiving DMA response for node 2931, address 0xdbbbe0 with label inputs and size 32.
192853149001: system.acc0_datapath: Receiving DMA response for node 2931, address 0xdbbc00 with label inputs and size 32.
192853150501: system.acc0_datapath: Receiving DMA response for node 2931, address 0xdbbc20 with label inputs and size 32.
192853152001: system.acc0_datapath: Receiving DMA response for node 2931, address 0xdbbc40 with label inputs and size 32.
192853153501: system.acc0_datapath: Receiving DMA response for node 2931, address 0xdbbc60 with label inputs and size 32.
192853173501: system.acc0_datapath: Receiving DMA response for node 2931, address 0xdbbc80 with label inputs and size 32.
192853175001: system.acc0_datapath: Receiving DMA response for node 2931, address 0xdbbca0 with label inputs and size 32.
192853176501: system.acc0_datapath: Receiving DMA response for node 2931, address 0xdbbcc0 with label inputs and size 32.
192853178001: system.acc0_datapath: Receiving DMA response for node 2931, address 0xdbbce0 with label inputs and size 32.
192853179501: system.acc0_datapath: Receiving DMA response for node 2931, address 0xdbbd00 with label inputs and size 32.
192853181001: system.acc0_datapath: Receiving DMA response for node 2931, address 0xdbbd20 with label inputs and size 32.
192853182501: system.acc0_datapath: Receiving DMA response for node 2931, address 0xdbbd40 with label inputs and size 32.
192853184001: system.acc0_datapath: Receiving DMA response for node 2931, address 0xdbbd60 with label inputs and size 32.
192853185501: system.acc0_datapath: Receiving DMA response for node 2931, address 0xdbbd80 with label inputs and size 32.
192853187001: system.acc0_datapath: Receiving DMA response for node 2931, address 0xdbbda0 with label inputs and size 32.
192853188501: system.acc0_datapath: Receiving DMA response for node 2931, address 0xdbbdc0 with label inputs and size 32.
192853190001: system.acc0_datapath: Receiving DMA response for node 2931, address 0xdbbde0 with label inputs and size 32.
192853191501: system.acc0_datapath: Receiving DMA response for node 2931, address 0xdbbe00 with label inputs and size 32.
192853193001: system.acc0_datapath: Receiving DMA response for node 2931, address 0xdbbe20 with label inputs and size 32.
192853212501: system.acc0_datapath: Receiving DMA response for node 2931, address 0xdbbe40 with label inputs and size 32.
192853214001: system.acc0_datapath: Receiving DMA response for node 2931, address 0xdbbe60 with label inputs and size 32.
192853215501: system.acc0_datapath: Receiving DMA response for node 2931, address 0xdbbe80 with label inputs and size 32.
192853217001: system.acc0_datapath: Receiving DMA response for node 2931, address 0xdbbea0 with label inputs and size 32.
192853218501: system.acc0_datapath: Receiving DMA response for node 2931, address 0xdbbec0 with label inputs and size 32.
192853218501: system.acc0_datapath: dmaCompleteCallback for node 2931.
192853604000: system.acc0_datapath: Scheduling DMA load operation with node id 5781 with delay 1536000
192855140000: system.acc0_datapath: Adding DMA node 5781 to DMA issue queue.
192855140000: system.acc0_datapath: issueDmaRequest: src_addr: 0x12b7920, dst_addr: 0xdbcee0, size: 4096
192855140000: system.acc0_datapath: DMA Accesses: array label inputs
192855140000: system.acc0_datapath: Increment the dmaLoad accesses of partition inputs with size 4096. 
192855171001: system.acc0_datapath: Receiving DMA response for node 5781, address 0xdbcee0 with label inputs and size 32.
192855172501: system.acc0_datapath: Receiving DMA response for node 5781, address 0xdbcf00 with label inputs and size 32.
192855174001: system.acc0_datapath: Receiving DMA response for node 5781, address 0xdbcf20 with label inputs and size 32.
192855175501: system.acc0_datapath: Receiving DMA response for node 5781, address 0xdbcf40 with label inputs and size 32.
192855177001: system.acc0_datapath: Receiving DMA response for node 5781, address 0xdbcf60 with label inputs and size 32.
192855178501: system.acc0_datapath: Receiving DMA response for node 5781, address 0xdbcf80 with label inputs and size 32.
192855180001: system.acc0_datapath: Receiving DMA response for node 5781, address 0xdbcfa0 with label inputs and size 32.
192855181501: system.acc0_datapath: Receiving DMA response for node 5781, address 0xdbcfc0 with label inputs and size 32.
192855183001: system.acc0_datapath: Receiving DMA response for node 5781, address 0xdbcfe0 with label inputs and size 32.
192855184501: system.acc0_datapath: Receiving DMA response for node 5781, address 0xdbd000 with label inputs and size 32.
192855204501: system.acc0_datapath: Receiving DMA response for node 5781, address 0xdbd020 with label inputs and size 32.
192855206001: system.acc0_datapath: Receiving DMA response for node 5781, address 0xdbd040 with label inputs and size 32.
192855207501: system.acc0_datapath: Receiving DMA response for node 5781, address 0xdbd060 with label inputs and size 32.
192855209001: system.acc0_datapath: Receiving DMA response for node 5781, address 0xdbd080 with label inputs and size 32.
192855210501: system.acc0_datapath: Receiving DMA response for node 5781, address 0xdbd0a0 with label inputs and size 32.
192855212001: system.acc0_datapath: Receiving DMA response for node 5781, address 0xdbd0c0 with label inputs and size 32.
192855213501: system.acc0_datapath: Receiving DMA response for node 5781, address 0xdbd0e0 with label inputs and size 32.
192855215001: system.acc0_datapath: Receiving DMA response for node 5781, address 0xdbd100 with label inputs and size 32.
192855216501: system.acc0_datapath: Receiving DMA response for node 5781, address 0xdbd120 with label inputs and size 32.
192855218001: system.acc0_datapath: Receiving DMA response for node 5781, address 0xdbd140 with label inputs and size 32.
192855219501: system.acc0_datapath: Receiving DMA response for node 5781, address 0xdbd160 with label inputs and size 32.
192855221001: system.acc0_datapath: Receiving DMA response for node 5781, address 0xdbd180 with label inputs and size 32.
192855222501: system.acc0_datapath: Receiving DMA response for node 5781, address 0xdbd1a0 with label inputs and size 32.
192855224001: system.acc0_datapath: Receiving DMA response for node 5781, address 0xdbd1c0 with label inputs and size 32.
192855244001: system.acc0_datapath: Receiving DMA response for node 5781, address 0xdbd1e0 with label inputs and size 32.
192855245501: system.acc0_datapath: Receiving DMA response for node 5781, address 0xdbd200 with label inputs and size 32.
192855247001: system.acc0_datapath: Receiving DMA response for node 5781, address 0xdbd220 with label inputs and size 32.
192855248501: system.acc0_datapath: Receiving DMA response for node 5781, address 0xdbd240 with label inputs and size 32.
192855250001: system.acc0_datapath: Receiving DMA response for node 5781, address 0xdbd260 with label inputs and size 32.
192855251501: system.acc0_datapath: Receiving DMA response for node 5781, address 0xdbd280 with label inputs and size 32.
192855253001: system.acc0_datapath: Receiving DMA response for node 5781, address 0xdbd2a0 with label inputs and size 32.
192855254501: system.acc0_datapath: Receiving DMA response for node 5781, address 0xdbd2c0 with label inputs and size 32.
192855256001: system.acc0_datapath: Receiving DMA response for node 5781, address 0xdbd2e0 with label inputs and size 32.
192855257501: system.acc0_datapath: Receiving DMA response for node 5781, address 0xdbd300 with label inputs and size 32.
192855259001: system.acc0_datapath: Receiving DMA response for node 5781, address 0xdbd320 with label inputs and size 32.
192855260501: system.acc0_datapath: Receiving DMA response for node 5781, address 0xdbd340 with label inputs and size 32.
192855262001: system.acc0_datapath: Receiving DMA response for node 5781, address 0xdbd360 with label inputs and size 32.
192855263501: system.acc0_datapath: Receiving DMA response for node 5781, address 0xdbd380 with label inputs and size 32.
192855283501: system.acc0_datapath: Receiving DMA response for node 5781, address 0xdbd3a0 with label inputs and size 32.
192855285001: system.acc0_datapath: Receiving DMA response for node 5781, address 0xdbd3c0 with label inputs and size 32.
192855286501: system.acc0_datapath: Receiving DMA response for node 5781, address 0xdbd3e0 with label inputs and size 32.
192855288001: system.acc0_datapath: Receiving DMA response for node 5781, address 0xdbd400 with label inputs and size 32.
192855289501: system.acc0_datapath: Receiving DMA response for node 5781, address 0xdbd420 with label inputs and size 32.
192855291001: system.acc0_datapath: Receiving DMA response for node 5781, address 0xdbd440 with label inputs and size 32.
192855292501: system.acc0_datapath: Receiving DMA response for node 5781, address 0xdbd460 with label inputs and size 32.
192855294001: system.acc0_datapath: Receiving DMA response for node 5781, address 0xdbd480 with label inputs and size 32.
192855295501: system.acc0_datapath: Receiving DMA response for node 5781, address 0xdbd4a0 with label inputs and size 32.
192855297001: system.acc0_datapath: Receiving DMA response for node 5781, address 0xdbd4c0 with label inputs and size 32.
192855298501: system.acc0_datapath: Receiving DMA response for node 5781, address 0xdbd4e0 with label inputs and size 32.
192855300001: system.acc0_datapath: Receiving DMA response for node 5781, address 0xdbd500 with label inputs and size 32.
192855301501: system.acc0_datapath: Receiving DMA response for node 5781, address 0xdbd520 with label inputs and size 32.
192855303001: system.acc0_datapath: Receiving DMA response for node 5781, address 0xdbd540 with label inputs and size 32.
192855304501: system.acc0_datapath: Receiving DMA response for node 5781, address 0xdbd560 with label inputs and size 32.
192855306001: system.acc0_datapath: Receiving DMA response for node 5781, address 0xdbd580 with label inputs and size 32.
192855326001: system.acc0_datapath: Receiving DMA response for node 5781, address 0xdbd5a0 with label inputs and size 32.
192855327501: system.acc0_datapath: Receiving DMA response for node 5781, address 0xdbd5c0 with label inputs and size 32.
192855329001: system.acc0_datapath: Receiving DMA response for node 5781, address 0xdbd5e0 with label inputs and size 32.
192855330501: system.acc0_datapath: Receiving DMA response for node 5781, address 0xdbd600 with label inputs and size 32.
192855332001: system.acc0_datapath: Receiving DMA response for node 5781, address 0xdbd620 with label inputs and size 32.
192855333501: system.acc0_datapath: Receiving DMA response for node 5781, address 0xdbd640 with label inputs and size 32.
192855335001: system.acc0_datapath: Receiving DMA response for node 5781, address 0xdbd660 with label inputs and size 32.
192855336501: system.acc0_datapath: Receiving DMA response for node 5781, address 0xdbd680 with label inputs and size 32.
192855338001: system.acc0_datapath: Receiving DMA response for node 5781, address 0xdbd6a0 with label inputs and size 32.
192855340001: system.acc0_datapath: Receiving DMA response for node 5781, address 0xdbd6c0 with label inputs and size 32.
192855341501: system.acc0_datapath: Receiving DMA response for node 5781, address 0xdbd6e0 with label inputs and size 32.
192855343001: system.acc0_datapath: Receiving DMA response for node 5781, address 0xdbd700 with label inputs and size 32.
192855344501: system.acc0_datapath: Receiving DMA response for node 5781, address 0xdbd720 with label inputs and size 32.
192855346001: system.acc0_datapath: Receiving DMA response for node 5781, address 0xdbd740 with label inputs and size 32.
192855357001: system.acc0_datapath: Receiving DMA response for node 5781, address 0xdbd760 with label inputs and size 32.
192855358501: system.acc0_datapath: Receiving DMA response for node 5781, address 0xdbd780 with label inputs and size 32.
192855366001: system.acc0_datapath: Receiving DMA response for node 5781, address 0xdbd7a0 with label inputs and size 32.
192855367501: system.acc0_datapath: Receiving DMA response for node 5781, address 0xdbd7c0 with label inputs and size 32.
192855369001: system.acc0_datapath: Receiving DMA response for node 5781, address 0xdbd7e0 with label inputs and size 32.
192855370501: system.acc0_datapath: Receiving DMA response for node 5781, address 0xdbd800 with label inputs and size 32.
192855372001: system.acc0_datapath: Receiving DMA response for node 5781, address 0xdbd820 with label inputs and size 32.
192855373501: system.acc0_datapath: Receiving DMA response for node 5781, address 0xdbd840 with label inputs and size 32.
192855375001: system.acc0_datapath: Receiving DMA response for node 5781, address 0xdbd860 with label inputs and size 32.
192855376501: system.acc0_datapath: Receiving DMA response for node 5781, address 0xdbd880 with label inputs and size 32.
192855378001: system.acc0_datapath: Receiving DMA response for node 5781, address 0xdbd8a0 with label inputs and size 32.
192855379501: system.acc0_datapath: Receiving DMA response for node 5781, address 0xdbd8c0 with label inputs and size 32.
192855381001: system.acc0_datapath: Receiving DMA response for node 5781, address 0xdbd8e0 with label inputs and size 32.
192855382501: system.acc0_datapath: Receiving DMA response for node 5781, address 0xdbd900 with label inputs and size 32.
192855402501: system.acc0_datapath: Receiving DMA response for node 5781, address 0xdbd920 with label inputs and size 32.
192855404001: system.acc0_datapath: Receiving DMA response for node 5781, address 0xdbd940 with label inputs and size 32.
192855405501: system.acc0_datapath: Receiving DMA response for node 5781, address 0xdbd960 with label inputs and size 32.
192855407001: system.acc0_datapath: Receiving DMA response for node 5781, address 0xdbd980 with label inputs and size 32.
192855408501: system.acc0_datapath: Receiving DMA response for node 5781, address 0xdbd9a0 with label inputs and size 32.
192855410001: system.acc0_datapath: Receiving DMA response for node 5781, address 0xdbd9c0 with label inputs and size 32.
192855411501: system.acc0_datapath: Receiving DMA response for node 5781, address 0xdbd9e0 with label inputs and size 32.
192855413001: system.acc0_datapath: Receiving DMA response for node 5781, address 0xdbda00 with label inputs and size 32.
192855414501: system.acc0_datapath: Receiving DMA response for node 5781, address 0xdbda20 with label inputs and size 32.
192855416001: system.acc0_datapath: Receiving DMA response for node 5781, address 0xdbda40 with label inputs and size 32.
192855417501: system.acc0_datapath: Receiving DMA response for node 5781, address 0xdbda60 with label inputs and size 32.
192855419001: system.acc0_datapath: Receiving DMA response for node 5781, address 0xdbda80 with label inputs and size 32.
192855420501: system.acc0_datapath: Receiving DMA response for node 5781, address 0xdbdaa0 with label inputs and size 32.
192855422001: system.acc0_datapath: Receiving DMA response for node 5781, address 0xdbdac0 with label inputs and size 32.
192855442001: system.acc0_datapath: Receiving DMA response for node 5781, address 0xdbdae0 with label inputs and size 32.
192855443501: system.acc0_datapath: Receiving DMA response for node 5781, address 0xdbdb00 with label inputs and size 32.
192855445001: system.acc0_datapath: Receiving DMA response for node 5781, address 0xdbdb20 with label inputs and size 32.
192855446501: system.acc0_datapath: Receiving DMA response for node 5781, address 0xdbdb40 with label inputs and size 32.
192855448001: system.acc0_datapath: Receiving DMA response for node 5781, address 0xdbdb60 with label inputs and size 32.
192855449501: system.acc0_datapath: Receiving DMA response for node 5781, address 0xdbdb80 with label inputs and size 32.
192855451001: system.acc0_datapath: Receiving DMA response for node 5781, address 0xdbdba0 with label inputs and size 32.
192855452501: system.acc0_datapath: Receiving DMA response for node 5781, address 0xdbdbc0 with label inputs and size 32.
192855454001: system.acc0_datapath: Receiving DMA response for node 5781, address 0xdbdbe0 with label inputs and size 32.
192855455501: system.acc0_datapath: Receiving DMA response for node 5781, address 0xdbdc00 with label inputs and size 32.
192855457001: system.acc0_datapath: Receiving DMA response for node 5781, address 0xdbdc20 with label inputs and size 32.
192855458501: system.acc0_datapath: Receiving DMA response for node 5781, address 0xdbdc40 with label inputs and size 32.
192855460001: system.acc0_datapath: Receiving DMA response for node 5781, address 0xdbdc60 with label inputs and size 32.
192855461501: system.acc0_datapath: Receiving DMA response for node 5781, address 0xdbdc80 with label inputs and size 32.
192855481501: system.acc0_datapath: Receiving DMA response for node 5781, address 0xdbdca0 with label inputs and size 32.
192855483001: system.acc0_datapath: Receiving DMA response for node 5781, address 0xdbdcc0 with label inputs and size 32.
192855484501: system.acc0_datapath: Receiving DMA response for node 5781, address 0xdbdce0 with label inputs and size 32.
192855486001: system.acc0_datapath: Receiving DMA response for node 5781, address 0xdbdd00 with label inputs and size 32.
192855487501: system.acc0_datapath: Receiving DMA response for node 5781, address 0xdbdd20 with label inputs and size 32.
192855489001: system.acc0_datapath: Receiving DMA response for node 5781, address 0xdbdd40 with label inputs and size 32.
192855490501: system.acc0_datapath: Receiving DMA response for node 5781, address 0xdbdd60 with label inputs and size 32.
192855492001: system.acc0_datapath: Receiving DMA response for node 5781, address 0xdbdd80 with label inputs and size 32.
192855493501: system.acc0_datapath: Receiving DMA response for node 5781, address 0xdbdda0 with label inputs and size 32.
192855495001: system.acc0_datapath: Receiving DMA response for node 5781, address 0xdbddc0 with label inputs and size 32.
192855496501: system.acc0_datapath: Receiving DMA response for node 5781, address 0xdbdde0 with label inputs and size 32.
192855498001: system.acc0_datapath: Receiving DMA response for node 5781, address 0xdbde00 with label inputs and size 32.
192855499501: system.acc0_datapath: Receiving DMA response for node 5781, address 0xdbde20 with label inputs and size 32.
192855501001: system.acc0_datapath: Receiving DMA response for node 5781, address 0xdbde40 with label inputs and size 32.
192855521001: system.acc0_datapath: Receiving DMA response for node 5781, address 0xdbde60 with label inputs and size 32.
192855522501: system.acc0_datapath: Receiving DMA response for node 5781, address 0xdbde80 with label inputs and size 32.
192855524001: system.acc0_datapath: Receiving DMA response for node 5781, address 0xdbdea0 with label inputs and size 32.
192855525501: system.acc0_datapath: Receiving DMA response for node 5781, address 0xdbdec0 with label inputs and size 32.
192855525501: system.acc0_datapath: dmaCompleteCallback for node 5781.
192855911000: system.acc0_datapath: Scheduling DMA load operation with node id 8631 with delay 1536000
192857447000: system.acc0_datapath: Adding DMA node 8631 to DMA issue queue.
192857447000: system.acc0_datapath: issueDmaRequest: src_addr: 0x12b8920, dst_addr: 0xdbeee0, size: 4096
192857447000: system.acc0_datapath: DMA Accesses: array label inputs
192857447000: system.acc0_datapath: Increment the dmaLoad accesses of partition inputs with size 4096. 
192857478001: system.acc0_datapath: Receiving DMA response for node 8631, address 0xdbeee0 with label inputs and size 32.
192857479501: system.acc0_datapath: Receiving DMA response for node 8631, address 0xdbef00 with label inputs and size 32.
192857481001: system.acc0_datapath: Receiving DMA response for node 8631, address 0xdbef20 with label inputs and size 32.
192857482501: system.acc0_datapath: Receiving DMA response for node 8631, address 0xdbef40 with label inputs and size 32.
192857484001: system.acc0_datapath: Receiving DMA response for node 8631, address 0xdbef60 with label inputs and size 32.
192857485501: system.acc0_datapath: Receiving DMA response for node 8631, address 0xdbef80 with label inputs and size 32.
192857487001: system.acc0_datapath: Receiving DMA response for node 8631, address 0xdbefa0 with label inputs and size 32.
192857488501: system.acc0_datapath: Receiving DMA response for node 8631, address 0xdbefc0 with label inputs and size 32.
192857490001: system.acc0_datapath: Receiving DMA response for node 8631, address 0xdbefe0 with label inputs and size 32.
192857491501: system.acc0_datapath: Receiving DMA response for node 8631, address 0xdbf000 with label inputs and size 32.
192857511501: system.acc0_datapath: Receiving DMA response for node 8631, address 0xdbf020 with label inputs and size 32.
192857513001: system.acc0_datapath: Receiving DMA response for node 8631, address 0xdbf040 with label inputs and size 32.
192857514501: system.acc0_datapath: Receiving DMA response for node 8631, address 0xdbf060 with label inputs and size 32.
192857516001: system.acc0_datapath: Receiving DMA response for node 8631, address 0xdbf080 with label inputs and size 32.
192857517501: system.acc0_datapath: Receiving DMA response for node 8631, address 0xdbf0a0 with label inputs and size 32.
192857519001: system.acc0_datapath: Receiving DMA response for node 8631, address 0xdbf0c0 with label inputs and size 32.
192857520501: system.acc0_datapath: Receiving DMA response for node 8631, address 0xdbf0e0 with label inputs and size 32.
192857522001: system.acc0_datapath: Receiving DMA response for node 8631, address 0xdbf100 with label inputs and size 32.
192857523501: system.acc0_datapath: Receiving DMA response for node 8631, address 0xdbf120 with label inputs and size 32.
192857525001: system.acc0_datapath: Receiving DMA response for node 8631, address 0xdbf140 with label inputs and size 32.
192857526501: system.acc0_datapath: Receiving DMA response for node 8631, address 0xdbf160 with label inputs and size 32.
192857528001: system.acc0_datapath: Receiving DMA response for node 8631, address 0xdbf180 with label inputs and size 32.
192857529501: system.acc0_datapath: Receiving DMA response for node 8631, address 0xdbf1a0 with label inputs and size 32.
192857531001: system.acc0_datapath: Receiving DMA response for node 8631, address 0xdbf1c0 with label inputs and size 32.
192857551001: system.acc0_datapath: Receiving DMA response for node 8631, address 0xdbf1e0 with label inputs and size 32.
192857552501: system.acc0_datapath: Receiving DMA response for node 8631, address 0xdbf200 with label inputs and size 32.
192857554001: system.acc0_datapath: Receiving DMA response for node 8631, address 0xdbf220 with label inputs and size 32.
192857555501: system.acc0_datapath: Receiving DMA response for node 8631, address 0xdbf240 with label inputs and size 32.
192857557001: system.acc0_datapath: Receiving DMA response for node 8631, address 0xdbf260 with label inputs and size 32.
192857558501: system.acc0_datapath: Receiving DMA response for node 8631, address 0xdbf280 with label inputs and size 32.
192857560001: system.acc0_datapath: Receiving DMA response for node 8631, address 0xdbf2a0 with label inputs and size 32.
192857561501: system.acc0_datapath: Receiving DMA response for node 8631, address 0xdbf2c0 with label inputs and size 32.
192857563001: system.acc0_datapath: Receiving DMA response for node 8631, address 0xdbf2e0 with label inputs and size 32.
192857564501: system.acc0_datapath: Receiving DMA response for node 8631, address 0xdbf300 with label inputs and size 32.
192857566001: system.acc0_datapath: Receiving DMA response for node 8631, address 0xdbf320 with label inputs and size 32.
192857567501: system.acc0_datapath: Receiving DMA response for node 8631, address 0xdbf340 with label inputs and size 32.
192857569001: system.acc0_datapath: Receiving DMA response for node 8631, address 0xdbf360 with label inputs and size 32.
192857570501: system.acc0_datapath: Receiving DMA response for node 8631, address 0xdbf380 with label inputs and size 32.
192857572501: system.acc0_datapath: Receiving DMA response for node 8631, address 0xdbf3a0 with label inputs and size 32.
192857574001: system.acc0_datapath: Receiving DMA response for node 8631, address 0xdbf3c0 with label inputs and size 32.
192857590001: system.acc0_datapath: Receiving DMA response for node 8631, address 0xdbf3e0 with label inputs and size 32.
192857591501: system.acc0_datapath: Receiving DMA response for node 8631, address 0xdbf400 with label inputs and size 32.
192857594001: system.acc0_datapath: Receiving DMA response for node 8631, address 0xdbf420 with label inputs and size 32.
192857595501: system.acc0_datapath: Receiving DMA response for node 8631, address 0xdbf440 with label inputs and size 32.
192857597001: system.acc0_datapath: Receiving DMA response for node 8631, address 0xdbf460 with label inputs and size 32.
192857598501: system.acc0_datapath: Receiving DMA response for node 8631, address 0xdbf480 with label inputs and size 32.
192857600001: system.acc0_datapath: Receiving DMA response for node 8631, address 0xdbf4a0 with label inputs and size 32.
192857601501: system.acc0_datapath: Receiving DMA response for node 8631, address 0xdbf4c0 with label inputs and size 32.
192857603001: system.acc0_datapath: Receiving DMA response for node 8631, address 0xdbf4e0 with label inputs and size 32.
192857604501: system.acc0_datapath: Receiving DMA response for node 8631, address 0xdbf500 with label inputs and size 32.
192857606001: system.acc0_datapath: Receiving DMA response for node 8631, address 0xdbf520 with label inputs and size 32.
192857607501: system.acc0_datapath: Receiving DMA response for node 8631, address 0xdbf540 with label inputs and size 32.
192857609001: system.acc0_datapath: Receiving DMA response for node 8631, address 0xdbf560 with label inputs and size 32.
192857610501: system.acc0_datapath: Receiving DMA response for node 8631, address 0xdbf580 with label inputs and size 32.
192857630501: system.acc0_datapath: Receiving DMA response for node 8631, address 0xdbf5a0 with label inputs and size 32.
192857632001: system.acc0_datapath: Receiving DMA response for node 8631, address 0xdbf5c0 with label inputs and size 32.
192857633501: system.acc0_datapath: Receiving DMA response for node 8631, address 0xdbf5e0 with label inputs and size 32.
192857635001: system.acc0_datapath: Receiving DMA response for node 8631, address 0xdbf600 with label inputs and size 32.
192857636501: system.acc0_datapath: Receiving DMA response for node 8631, address 0xdbf620 with label inputs and size 32.
192857638001: system.acc0_datapath: Receiving DMA response for node 8631, address 0xdbf640 with label inputs and size 32.
192857639501: system.acc0_datapath: Receiving DMA response for node 8631, address 0xdbf660 with label inputs and size 32.
192857641001: system.acc0_datapath: Receiving DMA response for node 8631, address 0xdbf680 with label inputs and size 32.
192857642501: system.acc0_datapath: Receiving DMA response for node 8631, address 0xdbf6a0 with label inputs and size 32.
192857644001: system.acc0_datapath: Receiving DMA response for node 8631, address 0xdbf6c0 with label inputs and size 32.
192857645501: system.acc0_datapath: Receiving DMA response for node 8631, address 0xdbf6e0 with label inputs and size 32.
192857647001: system.acc0_datapath: Receiving DMA response for node 8631, address 0xdbf700 with label inputs and size 32.
192857648501: system.acc0_datapath: Receiving DMA response for node 8631, address 0xdbf720 with label inputs and size 32.
192857650001: system.acc0_datapath: Receiving DMA response for node 8631, address 0xdbf740 with label inputs and size 32.
192857670001: system.acc0_datapath: Receiving DMA response for node 8631, address 0xdbf760 with label inputs and size 32.
192857671501: system.acc0_datapath: Receiving DMA response for node 8631, address 0xdbf780 with label inputs and size 32.
192857673001: system.acc0_datapath: Receiving DMA response for node 8631, address 0xdbf7a0 with label inputs and size 32.
192857674501: system.acc0_datapath: Receiving DMA response for node 8631, address 0xdbf7c0 with label inputs and size 32.
192857676001: system.acc0_datapath: Receiving DMA response for node 8631, address 0xdbf7e0 with label inputs and size 32.
192857677501: system.acc0_datapath: Receiving DMA response for node 8631, address 0xdbf800 with label inputs and size 32.
192857679001: system.acc0_datapath: Receiving DMA response for node 8631, address 0xdbf820 with label inputs and size 32.
192857680501: system.acc0_datapath: Receiving DMA response for node 8631, address 0xdbf840 with label inputs and size 32.
192857682001: system.acc0_datapath: Receiving DMA response for node 8631, address 0xdbf860 with label inputs and size 32.
192857683501: system.acc0_datapath: Receiving DMA response for node 8631, address 0xdbf880 with label inputs and size 32.
192857685001: system.acc0_datapath: Receiving DMA response for node 8631, address 0xdbf8a0 with label inputs and size 32.
192857686501: system.acc0_datapath: Receiving DMA response for node 8631, address 0xdbf8c0 with label inputs and size 32.
192857688001: system.acc0_datapath: Receiving DMA response for node 8631, address 0xdbf8e0 with label inputs and size 32.
192857689501: system.acc0_datapath: Receiving DMA response for node 8631, address 0xdbf900 with label inputs and size 32.
192857709501: system.acc0_datapath: Receiving DMA response for node 8631, address 0xdbf920 with label inputs and size 32.
192857711001: system.acc0_datapath: Receiving DMA response for node 8631, address 0xdbf940 with label inputs and size 32.
192857712501: system.acc0_datapath: Receiving DMA response for node 8631, address 0xdbf960 with label inputs and size 32.
192857714001: system.acc0_datapath: Receiving DMA response for node 8631, address 0xdbf980 with label inputs and size 32.
192857715501: system.acc0_datapath: Receiving DMA response for node 8631, address 0xdbf9a0 with label inputs and size 32.
192857717001: system.acc0_datapath: Receiving DMA response for node 8631, address 0xdbf9c0 with label inputs and size 32.
192857718501: system.acc0_datapath: Receiving DMA response for node 8631, address 0xdbf9e0 with label inputs and size 32.
192857720001: system.acc0_datapath: Receiving DMA response for node 8631, address 0xdbfa00 with label inputs and size 32.
192857721501: system.acc0_datapath: Receiving DMA response for node 8631, address 0xdbfa20 with label inputs and size 32.
192857723001: system.acc0_datapath: Receiving DMA response for node 8631, address 0xdbfa40 with label inputs and size 32.
192857724501: system.acc0_datapath: Receiving DMA response for node 8631, address 0xdbfa60 with label inputs and size 32.
192857726001: system.acc0_datapath: Receiving DMA response for node 8631, address 0xdbfa80 with label inputs and size 32.
192857727501: system.acc0_datapath: Receiving DMA response for node 8631, address 0xdbfaa0 with label inputs and size 32.
192857729001: system.acc0_datapath: Receiving DMA response for node 8631, address 0xdbfac0 with label inputs and size 32.
192857749001: system.acc0_datapath: Receiving DMA response for node 8631, address 0xdbfae0 with label inputs and size 32.
192857750501: system.acc0_datapath: Receiving DMA response for node 8631, address 0xdbfb00 with label inputs and size 32.
192857752001: system.acc0_datapath: Receiving DMA response for node 8631, address 0xdbfb20 with label inputs and size 32.
192857753501: system.acc0_datapath: Receiving DMA response for node 8631, address 0xdbfb40 with label inputs and size 32.
192857755001: system.acc0_datapath: Receiving DMA response for node 8631, address 0xdbfb60 with label inputs and size 32.
192857756501: system.acc0_datapath: Receiving DMA response for node 8631, address 0xdbfb80 with label inputs and size 32.
192857758001: system.acc0_datapath: Receiving DMA response for node 8631, address 0xdbfba0 with label inputs and size 32.
192857759501: system.acc0_datapath: Receiving DMA response for node 8631, address 0xdbfbc0 with label inputs and size 32.
192857761001: system.acc0_datapath: Receiving DMA response for node 8631, address 0xdbfbe0 with label inputs and size 32.
192857762501: system.acc0_datapath: Receiving DMA response for node 8631, address 0xdbfc00 with label inputs and size 32.
192857764501: system.acc0_datapath: Receiving DMA response for node 8631, address 0xdbfc20 with label inputs and size 32.
192857766001: system.acc0_datapath: Receiving DMA response for node 8631, address 0xdbfc40 with label inputs and size 32.
192857767501: system.acc0_datapath: Receiving DMA response for node 8631, address 0xdbfc60 with label inputs and size 32.
192857769001: system.acc0_datapath: Receiving DMA response for node 8631, address 0xdbfc80 with label inputs and size 32.
192857770501: system.acc0_datapath: Receiving DMA response for node 8631, address 0xdbfca0 with label inputs and size 32.
192857772001: system.acc0_datapath: Receiving DMA response for node 8631, address 0xdbfcc0 with label inputs and size 32.
192857782501: system.acc0_datapath: Receiving DMA response for node 8631, address 0xdbfce0 with label inputs and size 32.
192857784001: system.acc0_datapath: Receiving DMA response for node 8631, address 0xdbfd00 with label inputs and size 32.
192857792001: system.acc0_datapath: Receiving DMA response for node 8631, address 0xdbfd20 with label inputs and size 32.
192857793501: system.acc0_datapath: Receiving DMA response for node 8631, address 0xdbfd40 with label inputs and size 32.
192857795001: system.acc0_datapath: Receiving DMA response for node 8631, address 0xdbfd60 with label inputs and size 32.
192857796501: system.acc0_datapath: Receiving DMA response for node 8631, address 0xdbfd80 with label inputs and size 32.
192857798001: system.acc0_datapath: Receiving DMA response for node 8631, address 0xdbfda0 with label inputs and size 32.
192857799501: system.acc0_datapath: Receiving DMA response for node 8631, address 0xdbfdc0 with label inputs and size 32.
192857801001: system.acc0_datapath: Receiving DMA response for node 8631, address 0xdbfde0 with label inputs and size 32.
192857802501: system.acc0_datapath: Receiving DMA response for node 8631, address 0xdbfe00 with label inputs and size 32.
192857804001: system.acc0_datapath: Receiving DMA response for node 8631, address 0xdbfe20 with label inputs and size 32.
192857805501: system.acc0_datapath: Receiving DMA response for node 8631, address 0xdbfe40 with label inputs and size 32.
192857807001: system.acc0_datapath: Receiving DMA response for node 8631, address 0xdbfe60 with label inputs and size 32.
192857808501: system.acc0_datapath: Receiving DMA response for node 8631, address 0xdbfe80 with label inputs and size 32.
192857828501: system.acc0_datapath: Receiving DMA response for node 8631, address 0xdbfea0 with label inputs and size 32.
192857830001: system.acc0_datapath: Receiving DMA response for node 8631, address 0xdbfec0 with label inputs and size 32.
192857830001: system.acc0_datapath: dmaCompleteCallback for node 8631.
192858216000: system.acc0_datapath: Scheduling DMA load operation with node id 11481 with delay 1536000
192859752000: system.acc0_datapath: Adding DMA node 11481 to DMA issue queue.
192859752000: system.acc0_datapath: issueDmaRequest: src_addr: 0x12b9920, dst_addr: 0xdc0ee0, size: 4096
192859752000: system.acc0_datapath: DMA Accesses: array label inputs
[...]
200437104501: system.acc0_datapath: Receiving DMA response for node 2931, address 0xdbb8c0 with label inputs and size 32.
200437106001: system.acc0_datapath: Receiving DMA response for node 2931, address 0xdbb8e0 with label inputs and size 32.
200437107501: system.acc0_datapath: Receiving DMA response for node 2931, address 0xdbb900 with label inputs and size 32.
200437113001: system.acc0_datapath: Receiving DMA response for node 2931, address 0xdbb920 with label inputs and size 32.
200437115001: system.acc0_datapath: Receiving DMA response for node 2931, address 0xdbb940 with label inputs and size 32.
200437118001: system.acc0_datapath: Receiving DMA response for node 2931, address 0xdbb980 with label inputs and size 32.
200437124001: system.acc0_datapath: Receiving DMA response for node 2931, address 0xdbb960 with label inputs and size 32.
200437128001: system.acc0_datapath: Receiving DMA response for node 2931, address 0xdbba00 with label inputs and size 32.
200437129501: system.acc0_datapath: Receiving DMA response for node 2931, address 0xdbba20 with label inputs and size 32.
200437135001: system.acc0_datapath: Receiving DMA response for node 2931, address 0xdbb9a0 with label inputs and size 32.
200437136501: system.acc0_datapath: Receiving DMA response for node 2931, address 0xdbb9c0 with label inputs and size 32.
200437138001: system.acc0_datapath: Receiving DMA response for node 2931, address 0xdbb9e0 with label inputs and size 32.
200437139501: system.acc0_datapath: Receiving DMA response for node 2931, address 0xdbba40 with label inputs and size 32.
200437141001: system.acc0_datapath: Receiving DMA response for node 2931, address 0xdbba60 with label inputs and size 32.
200437142501: system.acc0_datapath: Receiving DMA response for node 2931, address 0xdbba80 with label inputs and size 32.
200437144001: system.acc0_datapath: Receiving DMA response for node 2931, address 0xdbbaa0 with label inputs and size 32.
200437152001: system.acc0_datapath: Receiving DMA response for node 2931, address 0xdbbac0 with label inputs and size 32.
200437153501: system.acc0_datapath: Receiving DMA response for node 2931, address 0xdbbae0 with label inputs and size 32.
200437155001: system.acc0_datapath: Receiving DMA response for node 2931, address 0xdbbb00 with label inputs and size 32.
200437156501: system.acc0_datapath: Receiving DMA response for node 2931, address 0xdbbb20 with label inputs and size 32.
200437158001: system.acc0_datapath: Receiving DMA response for node 2931, address 0xdbbb40 with label inputs and size 32.
200437167001: system.acc0_datapath: Receiving DMA response for node 2931, address 0xdbbbe0 with label inputs and size 32.
200437171501: system.acc0_datapath: Receiving DMA response for node 2931, address 0xdbbb60 with label inputs and size 32.
200437173001: system.acc0_datapath: Receiving DMA response for node 2931, address 0xdbbb80 with label inputs and size 32.
200437174501: system.acc0_datapath: Receiving DMA response for node 2931, address 0xdbbba0 with label inputs and size 32.
200437176001: system.acc0_datapath: Receiving DMA response for node 2931, address 0xdbbbc0 with label inputs and size 32.
200437177501: system.acc0_datapath: Receiving DMA response for node 2931, address 0xdbbc00 with label inputs and size 32.
200437179001: system.acc0_datapath: Receiving DMA response for node 2931, address 0xdbbc20 with label inputs and size 32.
200437187501: system.acc0_datapath: Receiving DMA response for node 2931, address 0xdbbc40 with label inputs and size 32.
200437189001: system.acc0_datapath: Receiving DMA response for node 2931, address 0xdbbc60 with label inputs and size 32.
200437190501: system.acc0_datapath: Receiving DMA response for node 2931, address 0xdbbc80 with label inputs and size 32.
200437192001: system.acc0_datapath: Receiving DMA response for node 2931, address 0xdbbca0 with label inputs and size 32.
200437193501: system.acc0_datapath: Receiving DMA response for node 2931, address 0xdbbcc0 with label inputs and size 32.
200437195001: system.acc0_datapath: Receiving DMA response for node 2931, address 0xdbbce0 with label inputs and size 32.
200437203501: system.acc0_datapath: Receiving DMA response for node 2931, address 0xdbbd00 with label inputs and size 32.
200437206501: system.acc0_datapath: Receiving DMA response for node 2931, address 0xdbbd20 with label inputs and size 32.
200437208001: system.acc0_datapath: Receiving DMA response for node 2931, address 0xdbbd40 with label inputs and size 32.
200437209501: system.acc0_datapath: Receiving DMA response for node 2931, address 0xdbbd60 with label inputs and size 32.
200437212001: system.acc0_datapath: Receiving DMA response for node 2931, address 0xdbbd80 with label inputs and size 32.
200437213501: system.acc0_datapath: Receiving DMA response for node 2931, address 0xdbbda0 with label inputs and size 32.
200437222501: system.acc0_datapath: Receiving DMA response for node 2931, address 0xdbbdc0 with label inputs and size 32.
200437224001: system.acc0_datapath: Receiving DMA response for node 2931, address 0xdbbde0 with label inputs and size 32.
200437225501: system.acc0_datapath: Receiving DMA response for node 2931, address 0xdbbe00 with label inputs and size 32.
200437227001: system.acc0_datapath: Receiving DMA response for node 2931, address 0xdbbea0 with label inputs and size 32.
200437228501: system.acc0_datapath: Receiving DMA response for node 2931, address 0xdbbe20 with label inputs and size 32.
200437230001: system.acc0_datapath: Receiving DMA response for node 2931, address 0xdbbe40 with label inputs and size 32.
200437231501: system.acc0_datapath: Receiving DMA response for node 2931, address 0xdbbe60 with label inputs and size 32.
200437233001: system.acc0_datapath: Receiving DMA response for node 2931, address 0xdbbe80 with label inputs and size 32.
200437239001: system.acc0_datapath: Receiving DMA response for node 2931, address 0xdbbec0 with label inputs and size 32.
200437239001: system.acc0_datapath: dmaCompleteCallback for node 2931.
200437625000: system.acc0_datapath: Scheduling DMA load operation with node id 5781 with delay 288000
200437913000: system.acc0_datapath: Adding DMA node 5781 to DMA issue queue.
200437913000: system.acc0_datapath: issueDmaRequest: src_addr: 0xd24120, dst_addr: 0xdbcee0, size: 768
200437913000: system.acc0_datapath: DMA Accesses: array label inputs
200437913000: system.acc0_datapath: Increment the dmaLoad accesses of partition inputs with size 768. 
200437951501: system.acc0_datapath: Receiving DMA response for node 5781, address 0xdbcee0 with label inputs and size 32.
200437953001: system.acc0_datapath: Receiving DMA response for node 5781, address 0xdbcf00 with label inputs and size 32.
200437954501: system.acc0_datapath: Receiving DMA response for node 5781, address 0xdbcf20 with label inputs and size 32.
200437956001: system.acc0_datapath: Receiving DMA response for node 5781, address 0xdbcf40 with label inputs and size 32.
200437957501: system.acc0_datapath: Receiving DMA response for node 5781, address 0xdbcf60 with label inputs and size 32.
200437959001: system.acc0_datapath: Receiving DMA response for node 5781, address 0xdbcf80 with label inputs and size 32.
200437960501: system.acc0_datapath: Receiving DMA response for node 5781, address 0xdbcfa0 with label inputs and size 32.
200437962001: system.acc0_datapath: Receiving DMA response for node 5781, address 0xdbcfc0 with label inputs and size 32.
200437969001: system.acc0_datapath: Receiving DMA response for node 5781, address 0xdbcfe0 with label inputs and size 32.
200437970501: system.acc0_datapath: Receiving DMA response for node 5781, address 0xdbd000 with label inputs and size 32.
200437972001: system.acc0_datapath: Receiving DMA response for node 5781, address 0xdbd020 with label inputs and size 32.
200437973501: system.acc0_datapath: Receiving DMA response for node 5781, address 0xdbd040 with label inputs and size 32.
200437975001: system.acc0_datapath: Receiving DMA response for node 5781, address 0xdbd060 with label inputs and size 32.
200437976501: system.acc0_datapath: Receiving DMA response for node 5781, address 0xdbd080 with label inputs and size 32.
200437978001: system.acc0_datapath: Receiving DMA response for node 5781, address 0xdbd0a0 with label inputs and size 32.
200437979501: system.acc0_datapath: Receiving DMA response for node 5781, address 0xdbd0c0 with label inputs and size 32.
200437991501: system.acc0_datapath: Receiving DMA response for node 5781, address 0xdbd0e0 with label inputs and size 32.
200437993001: system.acc0_datapath: Receiving DMA response for node 5781, address 0xdbd100 with label inputs and size 32.
200437994501: system.acc0_datapath: Receiving DMA response for node 5781, address 0xdbd120 with label inputs and size 32.
200438007001: system.acc0_datapath: Receiving DMA response for node 5781, address 0xdbd140 with label inputs and size 32.
200438008501: system.acc0_datapath: Receiving DMA response for node 5781, address 0xdbd160 with label inputs and size 32.
200438010001: system.acc0_datapath: Receiving DMA response for node 5781, address 0xdbd180 with label inputs and size 32.
200438011501: system.acc0_datapath: Receiving DMA response for node 5781, address 0xdbd1a0 with label inputs and size 32.
200438013001: system.acc0_datapath: Receiving DMA response for node 5781, address 0xdbd1c0 with label inputs and size 32.
200438013001: system.acc0_datapath: dmaCompleteCallback for node 5781.
200439455000: system.acc0_datapath: Scheduling DMA store operation with node id 63489 with delay 840000
200440295000: system.acc0_datapath: Adding DMA node 63489 to DMA issue queue.
200440295000: system.acc0_datapath: issueDmaRequest: src_addr: 0xd71cc0, dst_addr: 0xb137e0, size: 2240
200440295000: system.acc0_datapath: DMA Accesses: array label results
200440295000: system.acc0_datapath: Increment the dmaStore accesses of partition results with size 2240. 
200440788501: system.acc0_datapath: Receiving DMA response for node 63489, address 0xd71cc0 with label results and size 32.
200440790001: system.acc0_datapath: Receiving DMA response for node 63489, address 0xd71ce0 with label results and size 32.
200440791001: system.acc0_datapath: Receiving DMA response for node 63489, address 0xd71d00 with label results and size 32.
200440793001: system.acc0_datapath: Receiving DMA response for node 63489, address 0xd71d20 with label results and size 32.
200440794001: system.acc0_datapath: Receiving DMA response for node 63489, address 0xd71d40 with label results and size 32.
200440799001: system.acc0_datapath: Receiving DMA response for node 63489, address 0xd71d60 with label results and size 32.
200440804001: system.acc0_datapath: Receiving DMA response for node 63489, address 0xd71d80 with label results and size 32.
200440809001: system.acc0_datapath: Receiving DMA response for node 63489, address 0xd71da0 with label results and size 32.
200440810001: system.acc0_datapath: Receiving DMA response for node 63489, address 0xd71dc0 with label results and size 32.
200440813001: system.acc0_datapath: Receiving DMA response for node 63489, address 0xd71de0 with label results and size 32.
200440813501: system.acc0_datapath: Receiving DMA response for node 63489, address 0xd71e00 with label results and size 32.
200440814001: system.acc0_datapath: Receiving DMA response for node 63489, address 0xd71e20 with label results and size 32.
200440815001: system.acc0_datapath: Receiving DMA response for node 63489, address 0xd71e40 with label results and size 32.
200440816001: system.acc0_datapath: Receiving DMA response for node 63489, address 0xd71e60 with label results and size 32.
200440819001: system.acc0_datapath: Receiving DMA response for node 63489, address 0xd71e80 with label results and size 32.
200440821001: system.acc0_datapath: Receiving DMA response for node 63489, address 0xd71ea0 with label results and size 32.
200440824001: system.acc0_datapath: Receiving DMA response for node 63489, address 0xd71ec0 with label results and size 32.
200440826001: system.acc0_datapath: Receiving DMA response for node 63489, address 0xd71ee0 with label results and size 32.
200440829001: system.acc0_datapath: Receiving DMA response for node 63489, address 0xd71f00 with label results and size 32.
200440831001: system.acc0_datapath: Receiving DMA response for node 63489, address 0xd71f20 with label results and size 32.
200440832001: system.acc0_datapath: Receiving DMA response for node 63489, address 0xd71f40 with label results and size 32.
200440834001: system.acc0_datapath: Receiving DMA response for node 63489, address 0xd71f60 with label results and size 32.
200440835001: system.acc0_datapath: Receiving DMA response for node 63489, address 0xd71f80 with label results and size 32.
200440836001: system.acc0_datapath: Receiving DMA response for node 63489, address 0xd71fa0 with label results and size 32.
200440837001: system.acc0_datapath: Receiving DMA response for node 63489, address 0xd71fc0 with label results and size 32.
200440838001: system.acc0_datapath: Receiving DMA response for node 63489, address 0xd71fe0 with label results and size 32.
200440839001: system.acc0_datapath: Receiving DMA response for node 63489, address 0xd72000 with label results and size 32.
200440840001: system.acc0_datapath: Receiving DMA response for node 63489, address 0xd72020 with label results and size 32.
200440841001: system.acc0_datapath: Receiving DMA response for node 63489, address 0xd72040 with label results and size 32.
200440843001: system.acc0_datapath: Receiving DMA response for node 63489, address 0xd72060 with label results and size 32.
200440844001: system.acc0_datapath: Receiving DMA response for node 63489, address 0xd72080 with label results and size 32.
200440846001: system.acc0_datapath: Receiving DMA response for node 63489, address 0xd720a0 with label results and size 32.
200440848001: system.acc0_datapath: Receiving DMA response for node 63489, address 0xd720c0 with label results and size 32.
200440849001: system.acc0_datapath: Receiving DMA response for node 63489, address 0xd720e0 with label results and size 32.
200440851001: system.acc0_datapath: Receiving DMA response for node 63489, address 0xd72100 with label results and size 32.
200440853001: system.acc0_datapath: Receiving DMA response for node 63489, address 0xd72120 with label results and size 32.
200440854001: system.acc0_datapath: Receiving DMA response for node 63489, address 0xd72140 with label results and size 32.
200440856001: system.acc0_datapath: Receiving DMA response for node 63489, address 0xd72160 with label results and size 32.
200440857001: system.acc0_datapath: Receiving DMA response for node 63489, address 0xd72180 with label results and size 32.
200440858001: system.acc0_datapath: Receiving DMA response for node 63489, address 0xd721a0 with label results and size 32.
200440859001: system.acc0_datapath: Receiving DMA response for node 63489, address 0xd721c0 with label results and size 32.
200440860001: system.acc0_datapath: Receiving DMA response for node 63489, address 0xd721e0 with label results and size 32.
200440861001: system.acc0_datapath: Receiving DMA response for node 63489, address 0xd72200 with label results and size 32.
200440862001: system.acc0_datapath: Receiving DMA response for node 63489, address 0xd72220 with label results and size 32.
200440863001: system.acc0_datapath: Receiving DMA response for node 63489, address 0xd72240 with label results and size 32.
200440865001: system.acc0_datapath: Receiving DMA response for node 63489, address 0xd72260 with label results and size 32.
200440866001: system.acc0_datapath: Receiving DMA response for node 63489, address 0xd72280 with label results and size 32.
200440868001: system.acc0_datapath: Receiving DMA response for node 63489, address 0xd722a0 with label results and size 32.
200440870001: system.acc0_datapath: Receiving DMA response for node 63489, address 0xd722c0 with label results and size 32.
200440871001: system.acc0_datapath: Receiving DMA response for node 63489, address 0xd722e0 with label results and size 32.
200440873001: system.acc0_datapath: Receiving DMA response for node 63489, address 0xd72300 with label results and size 32.
200440875001: system.acc0_datapath: Receiving DMA response for node 63489, address 0xd72320 with label results and size 32.
200440876001: system.acc0_datapath: Receiving DMA response for node 63489, address 0xd72340 with label results and size 32.
200440878001: system.acc0_datapath: Receiving DMA response for node 63489, address 0xd72360 with label results and size 32.
200440879001: system.acc0_datapath: Receiving DMA response for node 63489, address 0xd72380 with label results and size 32.
200440880001: system.acc0_datapath: Receiving DMA response for node 63489, address 0xd723a0 with label results and size 32.
200440881001: system.acc0_datapath: Receiving DMA response for node 63489, address 0xd723c0 with label results and size 32.
200440882001: system.acc0_datapath: Receiving DMA response for node 63489, address 0xd723e0 with label results and size 32.
200440883001: system.acc0_datapath: Receiving DMA response for node 63489, address 0xd72400 with label results and size 32.
200440884001: system.acc0_datapath: Receiving DMA response for node 63489, address 0xd72420 with label results and size 32.
200440885001: system.acc0_datapath: Receiving DMA response for node 63489, address 0xd72440 with label results and size 32.
200440887001: system.acc0_datapath: Receiving DMA response for node 63489, address 0xd72460 with label results and size 32.
200440888001: system.acc0_datapath: Receiving DMA response for node 63489, address 0xd72480 with label results and size 32.
200440890001: system.acc0_datapath: Receiving DMA response for node 63489, address 0xd724a0 with label results and size 32.
200440892001: system.acc0_datapath: Receiving DMA response for node 63489, address 0xd724c0 with label results and size 32.
200440893001: system.acc0_datapath: Receiving DMA response for node 63489, address 0xd724e0 with label results and size 32.
200440895001: system.acc0_datapath: Receiving DMA response for node 63489, address 0xd72500 with label results and size 32.
200440897001: system.acc0_datapath: Receiving DMA response for node 63489, address 0xd72520 with label results and size 32.
200440898001: system.acc0_datapath: Receiving DMA response for node 63489, address 0xd72540 with label results and size 32.
200440900001: system.acc0_datapath: Receiving DMA response for node 63489, address 0xd72560 with label results and size 32.
200440900001: system.acc0_datapath: dmaCompleteCallback for node 63489.
===============================
        Aladdin Results        
===============================
Running : ./outputs/nnet_fwd
Top level function: smv_maxpooling_nhwc_vec_fxp
Cycle : 7916 cycles
Upsampled Cycle : 0 cycles
Avg Power: 168.89 mW
Idle FU Cycles: 6134 cycles
Avg FU Power: 3.38646 mW
Avg FU Dynamic Power: 0.496227 mW
Avg FU leakage Power: 2.89023 mW
Avg MEM Power: 165.504 mW
Avg MEM Dynamic Power: 146.593 mW
Avg MEM Leakage Power: 18.911 mW
Total Area: 1.37901e+06 uM^2
FU Area: 239127 uM^2
MEM Area: 1.13989e+06 uM^2
Num of Multipliers (32-bit): 7
Num of Adders (32-bit): 39
Num of Bit-wise Operators (32-bit): 4
Num of Shifters (32-bit): 11
Num of Registers (32-bit): 152
===============================
        Aladdin Results        
===============================
200440902000: system.acc0_datapath: Accelerator completed.
200440902000: system.acc0_datapath: Elapsed host seconds 1.16.
200440902000: system.acc0_datapath: Sent finished signal.
200440914001: system.acc0_datapath: cacheRespCallback for control signal access: 0x28c9f90
200440916000: system.acc0_datapath: Woken up the CPU thread context.
Scheduling conv0_stack4 (Convolution3d).
Exiting @ tick 2871962565000 because user interrupt received
