
---------- Begin Simulation Statistics ----------
# Stats desc: Network start
final_tick                                50091499000                       # Number of ticks from beginning of simulation (restored from checkpoints and never reset)
host_inst_rate                              117975463                       # Simulator instruction rate (inst/s)
host_mem_usage                                9877760                       # Number of bytes of host memory used
host_op_rate                                215282573                       # Simulator op (including micro ops) rate (op/s)
host_seconds                                     0.20                       # Real time elapsed on the host
host_tick_rate                               65581039                       # Simulator tick rate (ticks/s)
sim_freq                                 1000000000000                       # Frequency of simulated ticks
sim_insts                                    23940324                       # Number of instructions simulated
sim_ops                                      43699460                       # Number of ops (including micro ops) simulated
sim_seconds                                  0.000013                       # Number of seconds simulated
sim_ticks                                    13313000                       # Number of ticks simulated
system.acc0_datapath.acp_latency::samples            0                       # Histogram of ACP transaction total latency
system.acc0_datapath.acp_latency::mean            nan                       # Histogram of ACP transaction total latency
system.acc0_datapath.acp_latency::gmean           nan                       # Histogram of ACP transaction total latency
system.acc0_datapath.acp_latency::stdev           nan                       # Histogram of ACP transaction total latency
system.acc0_datapath.acp_latency::0                 0                       # Histogram of ACP transaction total latency
system.acc0_datapath.acp_latency::1                 0                       # Histogram of ACP transaction total latency
system.acc0_datapath.acp_latency::2                 0                       # Histogram of ACP transaction total latency
system.acc0_datapath.acp_latency::3                 0                       # Histogram of ACP transaction total latency
system.acc0_datapath.acp_latency::4                 0                       # Histogram of ACP transaction total latency
system.acc0_datapath.acp_latency::5                 0                       # Histogram of ACP transaction total latency
system.acc0_datapath.acp_latency::6                 0                       # Histogram of ACP transaction total latency
system.acc0_datapath.acp_latency::7                 0                       # Histogram of ACP transaction total latency
system.acc0_datapath.acp_latency::8                 0                       # Histogram of ACP transaction total latency
system.acc0_datapath.acp_latency::9                 0                       # Histogram of ACP transaction total latency
system.acc0_datapath.acp_latency::10                0                       # Histogram of ACP transaction total latency
system.acc0_datapath.acp_latency::11                0                       # Histogram of ACP transaction total latency
system.acc0_datapath.acp_latency::12                0                       # Histogram of ACP transaction total latency
system.acc0_datapath.acp_latency::13                0                       # Histogram of ACP transaction total latency
system.acc0_datapath.acp_latency::14                0                       # Histogram of ACP transaction total latency
system.acc0_datapath.acp_latency::15                0                       # Histogram of ACP transaction total latency
system.acc0_datapath.acp_latency::16                0                       # Histogram of ACP transaction total latency
system.acc0_datapath.acp_latency::17                0                       # Histogram of ACP transaction total latency
system.acc0_datapath.acp_latency::18                0                       # Histogram of ACP transaction total latency
system.acc0_datapath.acp_latency::19                0                       # Histogram of ACP transaction total latency
system.acc0_datapath.acp_latency::20                0                       # Histogram of ACP transaction total latency
system.acc0_datapath.acp_latency::21                0                       # Histogram of ACP transaction total latency
system.acc0_datapath.acp_latency::22                0                       # Histogram of ACP transaction total latency
system.acc0_datapath.acp_latency::23                0                       # Histogram of ACP transaction total latency
system.acc0_datapath.acp_latency::24                0                       # Histogram of ACP transaction total latency
system.acc0_datapath.acp_latency::25                0                       # Histogram of ACP transaction total latency
system.acc0_datapath.acp_latency::26                0                       # Histogram of ACP transaction total latency
system.acc0_datapath.acp_latency::27                0                       # Histogram of ACP transaction total latency
system.acc0_datapath.acp_latency::28                0                       # Histogram of ACP transaction total latency
system.acc0_datapath.acp_latency::29                0                       # Histogram of ACP transaction total latency
system.acc0_datapath.acp_latency::total             0                       # Histogram of ACP transaction total latency
system.acc0_datapath.acp_queue_time::samples            0                       # Histogram of time ACP request spent in queue
system.acc0_datapath.acp_queue_time::mean          nan                       # Histogram of time ACP request spent in queue
system.acc0_datapath.acp_queue_time::gmean          nan                       # Histogram of time ACP request spent in queue
system.acc0_datapath.acp_queue_time::stdev          nan                       # Histogram of time ACP request spent in queue
system.acc0_datapath.acp_queue_time::0              0                       # Histogram of time ACP request spent in queue
system.acc0_datapath.acp_queue_time::1              0                       # Histogram of time ACP request spent in queue
system.acc0_datapath.acp_queue_time::2              0                       # Histogram of time ACP request spent in queue
system.acc0_datapath.acp_queue_time::3              0                       # Histogram of time ACP request spent in queue
system.acc0_datapath.acp_queue_time::4              0                       # Histogram of time ACP request spent in queue
system.acc0_datapath.acp_queue_time::5              0                       # Histogram of time ACP request spent in queue
system.acc0_datapath.acp_queue_time::6              0                       # Histogram of time ACP request spent in queue
system.acc0_datapath.acp_queue_time::7              0                       # Histogram of time ACP request spent in queue
system.acc0_datapath.acp_queue_time::8              0                       # Histogram of time ACP request spent in queue
system.acc0_datapath.acp_queue_time::9              0                       # Histogram of time ACP request spent in queue
system.acc0_datapath.acp_queue_time::10             0                       # Histogram of time ACP request spent in queue
system.acc0_datapath.acp_queue_time::11             0                       # Histogram of time ACP request spent in queue
system.acc0_datapath.acp_queue_time::12             0                       # Histogram of time ACP request spent in queue
system.acc0_datapath.acp_queue_time::13             0                       # Histogram of time ACP request spent in queue
system.acc0_datapath.acp_queue_time::14             0                       # Histogram of time ACP request spent in queue
system.acc0_datapath.acp_queue_time::15             0                       # Histogram of time ACP request spent in queue
system.acc0_datapath.acp_queue_time::16             0                       # Histogram of time ACP request spent in queue
system.acc0_datapath.acp_queue_time::17             0                       # Histogram of time ACP request spent in queue
system.acc0_datapath.acp_queue_time::18             0                       # Histogram of time ACP request spent in queue
system.acc0_datapath.acp_queue_time::19             0                       # Histogram of time ACP request spent in queue
system.acc0_datapath.acp_queue_time::20             0                       # Histogram of time ACP request spent in queue
system.acc0_datapath.acp_queue_time::21             0                       # Histogram of time ACP request spent in queue
system.acc0_datapath.acp_queue_time::22             0                       # Histogram of time ACP request spent in queue
system.acc0_datapath.acp_queue_time::23             0                       # Histogram of time ACP request spent in queue
system.acc0_datapath.acp_queue_time::24             0                       # Histogram of time ACP request spent in queue
system.acc0_datapath.acp_queue_time::25             0                       # Histogram of time ACP request spent in queue
system.acc0_datapath.acp_queue_time::26             0                       # Histogram of time ACP request spent in queue
system.acc0_datapath.acp_queue_time::27             0                       # Histogram of time ACP request spent in queue
system.acc0_datapath.acp_queue_time::28             0                       # Histogram of time ACP request spent in queue
system.acc0_datapath.acp_queue_time::29             0                       # Histogram of time ACP request spent in queue
system.acc0_datapath.acp_queue_time::total            0                       # Histogram of time ACP request spent in queue
system.acc0_datapath.cache_queue_reads              0                       # Number of reads to the acc0_datapath.cache_queue
system.acc0_datapath.cache_queue_writes             0                       # Number of writes to the acc0_datapath.cache_queue
system.acc0_datapath.dcache_latency::samples            0                       # Histogram of dcache total access latency
system.acc0_datapath.dcache_latency::mean          nan                       # Histogram of dcache total access latency
system.acc0_datapath.dcache_latency::gmean          nan                       # Histogram of dcache total access latency
system.acc0_datapath.dcache_latency::stdev          nan                       # Histogram of dcache total access latency
system.acc0_datapath.dcache_latency::0              0                       # Histogram of dcache total access latency
system.acc0_datapath.dcache_latency::1              0                       # Histogram of dcache total access latency
system.acc0_datapath.dcache_latency::2              0                       # Histogram of dcache total access latency
system.acc0_datapath.dcache_latency::3              0                       # Histogram of dcache total access latency
system.acc0_datapath.dcache_latency::4              0                       # Histogram of dcache total access latency
system.acc0_datapath.dcache_latency::5              0                       # Histogram of dcache total access latency
system.acc0_datapath.dcache_latency::6              0                       # Histogram of dcache total access latency
system.acc0_datapath.dcache_latency::7              0                       # Histogram of dcache total access latency
system.acc0_datapath.dcache_latency::8              0                       # Histogram of dcache total access latency
system.acc0_datapath.dcache_latency::9              0                       # Histogram of dcache total access latency
system.acc0_datapath.dcache_latency::10             0                       # Histogram of dcache total access latency
system.acc0_datapath.dcache_latency::11             0                       # Histogram of dcache total access latency
system.acc0_datapath.dcache_latency::12             0                       # Histogram of dcache total access latency
system.acc0_datapath.dcache_latency::13             0                       # Histogram of dcache total access latency
system.acc0_datapath.dcache_latency::14             0                       # Histogram of dcache total access latency
system.acc0_datapath.dcache_latency::15             0                       # Histogram of dcache total access latency
system.acc0_datapath.dcache_latency::16             0                       # Histogram of dcache total access latency
system.acc0_datapath.dcache_latency::17             0                       # Histogram of dcache total access latency
system.acc0_datapath.dcache_latency::18             0                       # Histogram of dcache total access latency
system.acc0_datapath.dcache_latency::19             0                       # Histogram of dcache total access latency
system.acc0_datapath.dcache_latency::20             0                       # Histogram of dcache total access latency
system.acc0_datapath.dcache_latency::21             0                       # Histogram of dcache total access latency
system.acc0_datapath.dcache_latency::22             0                       # Histogram of dcache total access latency
system.acc0_datapath.dcache_latency::23             0                       # Histogram of dcache total access latency
system.acc0_datapath.dcache_latency::24             0                       # Histogram of dcache total access latency
system.acc0_datapath.dcache_latency::25             0                       # Histogram of dcache total access latency
system.acc0_datapath.dcache_latency::26             0                       # Histogram of dcache total access latency
system.acc0_datapath.dcache_latency::27             0                       # Histogram of dcache total access latency
system.acc0_datapath.dcache_latency::28             0                       # Histogram of dcache total access latency
system.acc0_datapath.dcache_latency::29             0                       # Histogram of dcache total access latency
system.acc0_datapath.dcache_latency::total            0                       # Histogram of dcache total access latency
system.acc0_datapath.dcache_queue_time::samples            0                       # Histogram of time dcache request spent in queue
system.acc0_datapath.dcache_queue_time::mean          nan                       # Histogram of time dcache request spent in queue
system.acc0_datapath.dcache_queue_time::gmean          nan                       # Histogram of time dcache request spent in queue
system.acc0_datapath.dcache_queue_time::stdev          nan                       # Histogram of time dcache request spent in queue
system.acc0_datapath.dcache_queue_time::0            0                       # Histogram of time dcache request spent in queue
system.acc0_datapath.dcache_queue_time::1            0                       # Histogram of time dcache request spent in queue
system.acc0_datapath.dcache_queue_time::2            0                       # Histogram of time dcache request spent in queue
system.acc0_datapath.dcache_queue_time::3            0                       # Histogram of time dcache request spent in queue
system.acc0_datapath.dcache_queue_time::4            0                       # Histogram of time dcache request spent in queue
system.acc0_datapath.dcache_queue_time::5            0                       # Histogram of time dcache request spent in queue
system.acc0_datapath.dcache_queue_time::6            0                       # Histogram of time dcache request spent in queue
system.acc0_datapath.dcache_queue_time::7            0                       # Histogram of time dcache request spent in queue
system.acc0_datapath.dcache_queue_time::8            0                       # Histogram of time dcache request spent in queue
system.acc0_datapath.dcache_queue_time::9            0                       # Histogram of time dcache request spent in queue
system.acc0_datapath.dcache_queue_time::10            0                       # Histogram of time dcache request spent in queue
system.acc0_datapath.dcache_queue_time::11            0                       # Histogram of time dcache request spent in queue
system.acc0_datapath.dcache_queue_time::12            0                       # Histogram of time dcache request spent in queue
system.acc0_datapath.dcache_queue_time::13            0                       # Histogram of time dcache request spent in queue
system.acc0_datapath.dcache_queue_time::14            0                       # Histogram of time dcache request spent in queue
system.acc0_datapath.dcache_queue_time::15            0                       # Histogram of time dcache request spent in queue
system.acc0_datapath.dcache_queue_time::16            0                       # Histogram of time dcache request spent in queue
system.acc0_datapath.dcache_queue_time::17            0                       # Histogram of time dcache request spent in queue
system.acc0_datapath.dcache_queue_time::18            0                       # Histogram of time dcache request spent in queue
system.acc0_datapath.dcache_queue_time::19            0                       # Histogram of time dcache request spent in queue
system.acc0_datapath.dcache_queue_time::20            0                       # Histogram of time dcache request spent in queue
system.acc0_datapath.dcache_queue_time::21            0                       # Histogram of time dcache request spent in queue
system.acc0_datapath.dcache_queue_time::22            0                       # Histogram of time dcache request spent in queue
system.acc0_datapath.dcache_queue_time::23            0                       # Histogram of time dcache request spent in queue
system.acc0_datapath.dcache_queue_time::24            0                       # Histogram of time dcache request spent in queue
system.acc0_datapath.dcache_queue_time::25            0                       # Histogram of time dcache request spent in queue
system.acc0_datapath.dcache_queue_time::26            0                       # Histogram of time dcache request spent in queue
system.acc0_datapath.dcache_queue_time::27            0                       # Histogram of time dcache request spent in queue
system.acc0_datapath.dcache_queue_time::28            0                       # Histogram of time dcache request spent in queue
system.acc0_datapath.dcache_queue_time::29            0                       # Histogram of time dcache request spent in queue
system.acc0_datapath.dcache_queue_time::total            0                       # Histogram of time dcache request spent in queue
system.acc0_datapath.dma_setup_cycles               0                       # Total number of cycles spent on setting up DMA transfers.
system.acc0_datapath.sim_cycles                     0                       # Total accelerator cycles
system.acc0_datapath.tlb.hits                       0                       # TLB hits
system.acc0_datapath.tlb.misses                     0                       # TLB misses
system.acc0_datapath.tlb.reads                      0                       # TLB reads
system.acc0_datapath.tlb.updates                    0                       # TLB updates
system.acc0_datapath.total_acp_loads                0                       # Total number of ACP loads
system.acc0_datapath.total_acp_stores               0                       # Total number of ACP stores.
system.acc0_datapath.total_dcache_loads             0                       # Total number of dcache loads
system.acc0_datapath.total_dcache_stores            0                       # Total number of dcache stores.
system.cpu.committedInsts                           0                       # Number of instructions committed
system.cpu.committedOps                             0                       # Number of ops (including micro ops) committed
system.cpu.dtb.rdAccesses                           0                       # TLB accesses on read requests
system.cpu.dtb.rdMisses                             0                       # TLB misses on read requests
system.cpu.dtb.wrAccesses                           0                       # TLB accesses on write requests
system.cpu.dtb.wrMisses                             0                       # TLB misses on write requests
system.cpu.idle_fraction                            0                       # Percentage of idle cycles
system.cpu.itb.rdAccesses                           0                       # TLB accesses on read requests
system.cpu.itb.rdMisses                             0                       # TLB misses on read requests
system.cpu.itb.wrAccesses                           0                       # TLB accesses on write requests
system.cpu.itb.wrMisses                             0                       # TLB misses on write requests
system.cpu.not_idle_fraction                        1                       # Percentage of non-idle cycles
system.cpu.numCycles                                0                       # number of cpu cycles simulated
system.cpu.numWorkItemsCompleted                    0                       # number of work items this cpu completed
system.cpu.numWorkItemsStarted                      0                       # number of work items this cpu started
system.cpu.num_busy_cycles                          0                       # Number of busy cycles
system.cpu.num_conditional_control_insts            0                       # number of instructions that are conditional controls
system.cpu.num_fp_alu_accesses                      0                       # Number of float alu accesses
system.cpu.num_fp_insts                             0                       # number of float instructions
system.cpu.num_fp_register_reads                    0                       # number of times the floating registers were read
system.cpu.num_fp_register_writes                   0                       # number of times the floating registers were written
system.cpu.num_func_calls                           0                       # number of times a function call or return occured
system.cpu.num_idle_cycles                          0                       # Number of idle cycles
system.cpu.num_int_alu_accesses                     0                       # Number of integer alu accesses
system.cpu.num_int_insts                            0                       # number of integer instructions
system.cpu.num_int_register_reads                   0                       # number of times the integer registers were read
system.cpu.num_int_register_writes                  0                       # number of times the integer registers were written
system.cpu.num_load_insts                           0                       # Number of load instructions
system.cpu.num_mem_refs                             0                       # number of memory refs
system.cpu.num_store_insts                          0                       # Number of store instructions
system.cpu.num_vec_alu_accesses                     0                       # Number of vector alu accesses
system.cpu.num_vec_insts                            0                       # number of vector instructions
system.cpu.num_vec_register_reads                   0                       # number of times the vector registers were read
system.cpu.num_vec_register_writes                  0                       # number of times the vector registers were written
system.cpu.op_class::No_OpClass                     0                       # Class of executed instruction
system.cpu.op_class::IntAlu                         0                       # Class of executed instruction
system.cpu.op_class::IntMult                        0                       # Class of executed instruction
system.cpu.op_class::IntDiv                         0                       # Class of executed instruction
system.cpu.op_class::FloatAdd                       0                       # Class of executed instruction
system.cpu.op_class::FloatCmp                       0                       # Class of executed instruction
system.cpu.op_class::FloatCvt                       0                       # Class of executed instruction
system.cpu.op_class::FloatMult                      0                       # Class of executed instruction
system.cpu.op_class::FloatMultAcc                   0                       # Class of executed instruction
system.cpu.op_class::FloatDiv                       0                       # Class of executed instruction
system.cpu.op_class::FloatMisc                      0                       # Class of executed instruction
system.cpu.op_class::FloatSqrt                      0                       # Class of executed instruction
system.cpu.op_class::SimdAdd                        0                       # Class of executed instruction
system.cpu.op_class::SimdAddAcc                     0                       # Class of executed instruction
system.cpu.op_class::SimdAlu                        0                       # Class of executed instruction
system.cpu.op_class::SimdCmp                        0                       # Class of executed instruction
system.cpu.op_class::SimdCvt                        0                       # Class of executed instruction
system.cpu.op_class::SimdMisc                       0                       # Class of executed instruction
system.cpu.op_class::SimdMult                       0                       # Class of executed instruction
system.cpu.op_class::SimdMultAcc                    0                       # Class of executed instruction
system.cpu.op_class::SimdShift                      0                       # Class of executed instruction
system.cpu.op_class::SimdShiftAcc                   0                       # Class of executed instruction
system.cpu.op_class::SimdDiv                        0                       # Class of executed instruction
system.cpu.op_class::SimdSqrt                       0                       # Class of executed instruction
system.cpu.op_class::SimdFloatAdd                   0                       # Class of executed instruction
system.cpu.op_class::SimdFloatAlu                   0                       # Class of executed instruction
system.cpu.op_class::SimdFloatCmp                   0                       # Class of executed instruction
system.cpu.op_class::SimdFloatCvt                   0                       # Class of executed instruction
system.cpu.op_class::SimdFloatDiv                   0                       # Class of executed instruction
system.cpu.op_class::SimdFloatMisc                  0                       # Class of executed instruction
system.cpu.op_class::SimdFloatMult                  0                       # Class of executed instruction
system.cpu.op_class::SimdFloatMultAcc               0                       # Class of executed instruction
system.cpu.op_class::SimdFloatSqrt                  0                       # Class of executed instruction
system.cpu.op_class::SimdReduceAdd                  0                       # Class of executed instruction
system.cpu.op_class::SimdReduceAlu                  0                       # Class of executed instruction
system.cpu.op_class::SimdReduceCmp                  0                       # Class of executed instruction
system.cpu.op_class::SimdFloatReduceAdd             0                       # Class of executed instruction
system.cpu.op_class::SimdFloatReduceCmp             0                       # Class of executed instruction
system.cpu.op_class::SimdAes                        0                       # Class of executed instruction
system.cpu.op_class::SimdAesMix                     0                       # Class of executed instruction
system.cpu.op_class::SimdSha1Hash                   0                       # Class of executed instruction
system.cpu.op_class::SimdSha1Hash2                  0                       # Class of executed instruction
system.cpu.op_class::SimdSha256Hash                 0                       # Class of executed instruction
system.cpu.op_class::SimdSha256Hash2                0                       # Class of executed instruction
system.cpu.op_class::SimdShaSigma2                  0                       # Class of executed instruction
system.cpu.op_class::SimdShaSigma3                  0                       # Class of executed instruction
system.cpu.op_class::SimdPredAlu                    0                       # Class of executed instruction
system.cpu.op_class::MemRead                        0                       # Class of executed instruction
system.cpu.op_class::MemWrite                       0                       # Class of executed instruction
system.cpu.op_class::FloatMemRead                   0                       # Class of executed instruction
system.cpu.op_class::FloatMemWrite                  0                       # Class of executed instruction
system.cpu.op_class::IprAccess                      0                       # Class of executed instruction
system.cpu.op_class::InstPrefetch                   0                       # Class of executed instruction
system.cpu.op_class::total                          0                       # Class of executed instruction
system.cpu.workload.numSyscalls                     3                       # Number of system calls
system.ruby.Directory_Controller.Fetch            343      0.00%      0.00%
system.ruby.Directory_Controller.I.Fetch          343      0.00%      0.00%
system.ruby.Directory_Controller.IM.Memory_Data          343      0.00%      0.00%
system.ruby.Directory_Controller.Memory_Data          343      0.00%      0.00%
system.ruby.IFETCH.hit_latency_hist_seqr::bucket_size            1                      
system.ruby.IFETCH.hit_latency_hist_seqr::max_bucket            9                      
system.ruby.IFETCH.hit_latency_hist_seqr::samples         1393                      
system.ruby.IFETCH.hit_latency_hist_seqr |        1393    100.00%    100.00% |           0      0.00%    100.00% |           0      0.00%    100.00% |           0      0.00%    100.00% |           0      0.00%    100.00% |           0      0.00%    100.00% |           0      0.00%    100.00% |           0      0.00%    100.00% |           0      0.00%    100.00% |           0      0.00%    100.00%
system.ruby.IFETCH.hit_latency_hist_seqr::total         1393                      
system.ruby.IFETCH.latency_hist_seqr::bucket_size            1                      
system.ruby.IFETCH.latency_hist_seqr::max_bucket            9                      
system.ruby.IFETCH.latency_hist_seqr::samples         1588                      
system.ruby.IFETCH.latency_hist_seqr     |        1588    100.00%    100.00% |           0      0.00%    100.00% |           0      0.00%    100.00% |           0      0.00%    100.00% |           0      0.00%    100.00% |           0      0.00%    100.00% |           0      0.00%    100.00% |           0      0.00%    100.00% |           0      0.00%    100.00% |           0      0.00%    100.00%
system.ruby.IFETCH.latency_hist_seqr::total         1588                      
system.ruby.IFETCH.miss_latency_hist_seqr::bucket_size            1                      
system.ruby.IFETCH.miss_latency_hist_seqr::max_bucket            9                      
system.ruby.IFETCH.miss_latency_hist_seqr::samples          195                      
system.ruby.IFETCH.miss_latency_hist_seqr |         195    100.00%    100.00% |           0      0.00%    100.00% |           0      0.00%    100.00% |           0      0.00%    100.00% |           0      0.00%    100.00% |           0      0.00%    100.00% |           0      0.00%    100.00% |           0      0.00%    100.00% |           0      0.00%    100.00% |           0      0.00%    100.00%
system.ruby.IFETCH.miss_latency_hist_seqr::total          195                      
system.ruby.L1Cache_Controller.Data_Exclusive |         122    100.00%    100.00% |           0      0.00%    100.00% |           0      0.00%    100.00%
system.ruby.L1Cache_Controller.Data_Exclusive::total          122                      
system.ruby.L1Cache_Controller.Data_all_Acks |         229    100.00%    100.00% |           0      0.00%    100.00% |           0      0.00%    100.00%
system.ruby.L1Cache_Controller.Data_all_Acks::total          229                      
system.ruby.L1Cache_Controller.E.Load    |         420    100.00%    100.00% |           0      0.00%    100.00% |           0      0.00%    100.00%
system.ruby.L1Cache_Controller.E.Load::total          420                      
system.ruby.L1Cache_Controller.E.Store   |          22    100.00%    100.00% |           0      0.00%    100.00% |           0      0.00%    100.00%
system.ruby.L1Cache_Controller.E.Store::total           22                      
system.ruby.L1Cache_Controller.IM.Data_all_Acks |          29    100.00%    100.00% |           0      0.00%    100.00% |           0      0.00%    100.00%
system.ruby.L1Cache_Controller.IM.Data_all_Acks::total           29                      
system.ruby.L1Cache_Controller.IS.Data_Exclusive |         122    100.00%    100.00% |           0      0.00%    100.00% |           0      0.00%    100.00%
system.ruby.L1Cache_Controller.IS.Data_Exclusive::total          122                      
system.ruby.L1Cache_Controller.IS.Data_all_Acks |         200    100.00%    100.00% |           0      0.00%    100.00% |           0      0.00%    100.00%
system.ruby.L1Cache_Controller.IS.Data_all_Acks::total          200                      
system.ruby.L1Cache_Controller.Ifetch    |        1588    100.00%    100.00% |           0      0.00%    100.00% |           0      0.00%    100.00%
system.ruby.L1Cache_Controller.Ifetch::total         1588                      
system.ruby.L1Cache_Controller.L1_Replacement |           8    100.00%    100.00% |           0      0.00%    100.00% |           0      0.00%    100.00%
system.ruby.L1Cache_Controller.L1_Replacement::total            8                      
system.ruby.L1Cache_Controller.Load      |         856    100.00%    100.00% |           0      0.00%    100.00% |           0      0.00%    100.00%
system.ruby.L1Cache_Controller.Load::total          856                      
system.ruby.L1Cache_Controller.M.Load    |         306    100.00%    100.00% |           0      0.00%    100.00% |           0      0.00%    100.00%
system.ruby.L1Cache_Controller.M.Load::total          306                      
system.ruby.L1Cache_Controller.M.Store   |         368    100.00%    100.00% |           0      0.00%    100.00% |           0      0.00%    100.00%
system.ruby.L1Cache_Controller.M.Store::total          368                      
system.ruby.L1Cache_Controller.NP.Ifetch |         195    100.00%    100.00% |           0      0.00%    100.00% |           0      0.00%    100.00%
system.ruby.L1Cache_Controller.NP.Ifetch::total          195                      
system.ruby.L1Cache_Controller.NP.Load   |         127    100.00%    100.00% |           0      0.00%    100.00% |           0      0.00%    100.00%
system.ruby.L1Cache_Controller.NP.Load::total          127                      
system.ruby.L1Cache_Controller.NP.Store  |          29    100.00%    100.00% |           0      0.00%    100.00% |           0      0.00%    100.00%
system.ruby.L1Cache_Controller.NP.Store::total           29                      
system.ruby.L1Cache_Controller.S.Ifetch  |        1393    100.00%    100.00% |           0      0.00%    100.00% |           0      0.00%    100.00%
system.ruby.L1Cache_Controller.S.Ifetch::total         1393                      
system.ruby.L1Cache_Controller.S.L1_Replacement |           8    100.00%    100.00% |           0      0.00%    100.00% |           0      0.00%    100.00%
system.ruby.L1Cache_Controller.S.L1_Replacement::total            8                      
system.ruby.L1Cache_Controller.S.Load    |           3    100.00%    100.00% |           0      0.00%    100.00% |           0      0.00%    100.00%
system.ruby.L1Cache_Controller.S.Load::total            3                      
system.ruby.L1Cache_Controller.Store     |         419    100.00%    100.00% |           0      0.00%    100.00% |           0      0.00%    100.00%
system.ruby.L1Cache_Controller.Store::total          419                      
system.ruby.L2Cache_Controller.Exclusive_Unblock          151      0.00%      0.00%
system.ruby.L2Cache_Controller.IM.Mem_Data           29      0.00%      0.00%
system.ruby.L2Cache_Controller.IS.Mem_Data          192      0.00%      0.00%
system.ruby.L2Cache_Controller.ISS.Mem_Data          122      0.00%      0.00%
system.ruby.L2Cache_Controller.L1_GETS            127      0.00%      0.00%
system.ruby.L2Cache_Controller.L1_GETX             29      0.00%      0.00%
system.ruby.L2Cache_Controller.L1_GET_INSTR          195      0.00%      0.00%
system.ruby.L2Cache_Controller.MT_MB.Exclusive_Unblock          151      0.00%      0.00%
system.ruby.L2Cache_Controller.Mem_Data           343      0.00%      0.00%
system.ruby.L2Cache_Controller.NP.L1_GETS          122      0.00%      0.00%
system.ruby.L2Cache_Controller.NP.L1_GETX           29      0.00%      0.00%
system.ruby.L2Cache_Controller.NP.L1_GET_INSTR          192      0.00%      0.00%
system.ruby.L2Cache_Controller.SS.L1_GETS            5      0.00%      0.00%
system.ruby.L2Cache_Controller.SS.L1_GET_INSTR            3      0.00%      0.00%
system.ruby.LD.hit_latency_hist_seqr::bucket_size            1                      
system.ruby.LD.hit_latency_hist_seqr::max_bucket            9                      
system.ruby.LD.hit_latency_hist_seqr::samples          729                      
system.ruby.LD.hit_latency_hist_seqr     |         729    100.00%    100.00% |           0      0.00%    100.00% |           0      0.00%    100.00% |           0      0.00%    100.00% |           0      0.00%    100.00% |           0      0.00%    100.00% |           0      0.00%    100.00% |           0      0.00%    100.00% |           0      0.00%    100.00% |           0      0.00%    100.00%
system.ruby.LD.hit_latency_hist_seqr::total          729                      
system.ruby.LD.latency_hist_seqr::bucket_size            1                      
system.ruby.LD.latency_hist_seqr::max_bucket            9                      
system.ruby.LD.latency_hist_seqr::samples          856                      
system.ruby.LD.latency_hist_seqr         |         856    100.00%    100.00% |           0      0.00%    100.00% |           0      0.00%    100.00% |           0      0.00%    100.00% |           0      0.00%    100.00% |           0      0.00%    100.00% |           0      0.00%    100.00% |           0      0.00%    100.00% |           0      0.00%    100.00% |           0      0.00%    100.00%
system.ruby.LD.latency_hist_seqr::total           856                      
system.ruby.LD.miss_latency_hist_seqr::bucket_size            1                      
system.ruby.LD.miss_latency_hist_seqr::max_bucket            9                      
system.ruby.LD.miss_latency_hist_seqr::samples          127                      
system.ruby.LD.miss_latency_hist_seqr    |         127    100.00%    100.00% |           0      0.00%    100.00% |           0      0.00%    100.00% |           0      0.00%    100.00% |           0      0.00%    100.00% |           0      0.00%    100.00% |           0      0.00%    100.00% |           0      0.00%    100.00% |           0      0.00%    100.00% |           0      0.00%    100.00%
system.ruby.LD.miss_latency_hist_seqr::total          127                      
system.ruby.RMW_Read.hit_latency_hist_seqr::bucket_size            1                      
system.ruby.RMW_Read.hit_latency_hist_seqr::max_bucket            9                      
system.ruby.RMW_Read.hit_latency_hist_seqr::samples           36                      
system.ruby.RMW_Read.hit_latency_hist_seqr |          36    100.00%    100.00% |           0      0.00%    100.00% |           0      0.00%    100.00% |           0      0.00%    100.00% |           0      0.00%    100.00% |           0      0.00%    100.00% |           0      0.00%    100.00% |           0      0.00%    100.00% |           0      0.00%    100.00% |           0      0.00%    100.00%
system.ruby.RMW_Read.hit_latency_hist_seqr::total           36                      
system.ruby.RMW_Read.latency_hist_seqr::bucket_size            1                      
system.ruby.RMW_Read.latency_hist_seqr::max_bucket            9                      
system.ruby.RMW_Read.latency_hist_seqr::samples           40                      
system.ruby.RMW_Read.latency_hist_seqr   |          40    100.00%    100.00% |           0      0.00%    100.00% |           0      0.00%    100.00% |           0      0.00%    100.00% |           0      0.00%    100.00% |           0      0.00%    100.00% |           0      0.00%    100.00% |           0      0.00%    100.00% |           0      0.00%    100.00% |           0      0.00%    100.00%
system.ruby.RMW_Read.latency_hist_seqr::total           40                      
system.ruby.RMW_Read.miss_latency_hist_seqr::bucket_size            1                      
system.ruby.RMW_Read.miss_latency_hist_seqr::max_bucket            9                      
system.ruby.RMW_Read.miss_latency_hist_seqr::samples            4                      
system.ruby.RMW_Read.miss_latency_hist_seqr |           4    100.00%    100.00% |           0      0.00%    100.00% |           0      0.00%    100.00% |           0      0.00%    100.00% |           0      0.00%    100.00% |           0      0.00%    100.00% |           0      0.00%    100.00% |           0      0.00%    100.00% |           0      0.00%    100.00% |           0      0.00%    100.00%
system.ruby.RMW_Read.miss_latency_hist_seqr::total            4                      
system.ruby.ST.hit_latency_hist_seqr::bucket_size            1                      
system.ruby.ST.hit_latency_hist_seqr::max_bucket            9                      
system.ruby.ST.hit_latency_hist_seqr::samples          354                      
system.ruby.ST.hit_latency_hist_seqr     |         354    100.00%    100.00% |           0      0.00%    100.00% |           0      0.00%    100.00% |           0      0.00%    100.00% |           0      0.00%    100.00% |           0      0.00%    100.00% |           0      0.00%    100.00% |           0      0.00%    100.00% |           0      0.00%    100.00% |           0      0.00%    100.00%
system.ruby.ST.hit_latency_hist_seqr::total          354                      
system.ruby.ST.latency_hist_seqr::bucket_size            1                      
system.ruby.ST.latency_hist_seqr::max_bucket            9                      
system.ruby.ST.latency_hist_seqr::samples          379                      
system.ruby.ST.latency_hist_seqr         |         379    100.00%    100.00% |           0      0.00%    100.00% |           0      0.00%    100.00% |           0      0.00%    100.00% |           0      0.00%    100.00% |           0      0.00%    100.00% |           0      0.00%    100.00% |           0      0.00%    100.00% |           0      0.00%    100.00% |           0      0.00%    100.00%
system.ruby.ST.latency_hist_seqr::total           379                      
system.ruby.ST.miss_latency_hist_seqr::bucket_size            1                      
system.ruby.ST.miss_latency_hist_seqr::max_bucket            9                      
system.ruby.ST.miss_latency_hist_seqr::samples           25                      
system.ruby.ST.miss_latency_hist_seqr    |          25    100.00%    100.00% |           0      0.00%    100.00% |           0      0.00%    100.00% |           0      0.00%    100.00% |           0      0.00%    100.00% |           0      0.00%    100.00% |           0      0.00%    100.00% |           0      0.00%    100.00% |           0      0.00%    100.00% |           0      0.00%    100.00%
system.ruby.ST.miss_latency_hist_seqr::total           25                      
system.ruby.acp_cntrl_acc0.sequencer.dcache.demand_accesses            0                       # Number of cache demand accesses
system.ruby.acp_cntrl_acc0.sequencer.dcache.demand_hits            0                       # Number of cache demand hits
system.ruby.acp_cntrl_acc0.sequencer.dcache.demand_misses            0                       # Number of cache demand misses
system.ruby.acp_cntrl_acc0.sequencer.dcache.read_accesses            0                       # Number of cache read accesses
system.ruby.acp_cntrl_acc0.sequencer.dcache.read_hits            0                       # Number of cache read hits
system.ruby.acp_cntrl_acc0.sequencer.dcache.read_misses            0                       # Number of cache read misses
system.ruby.acp_cntrl_acc0.sequencer.dcache.write_accesses            0                       # Number of cache write accesses
system.ruby.acp_cntrl_acc0.sequencer.dcache.write_hits            0                       # Number of cache write hits
system.ruby.acp_cntrl_acc0.sequencer.dcache.write_misses            0                       # Number of cache write misses
system.ruby.acp_cntrl_acc0.sequencer.icache.demand_accesses            0                       # Number of cache demand accesses
system.ruby.acp_cntrl_acc0.sequencer.icache.demand_hits            0                       # Number of cache demand hits
system.ruby.acp_cntrl_acc0.sequencer.icache.demand_misses            0                       # Number of cache demand misses
system.ruby.acp_cntrl_acc0.sequencer.icache.read_accesses            0                       # Number of cache read accesses
system.ruby.acp_cntrl_acc0.sequencer.icache.read_hits            0                       # Number of cache read hits
system.ruby.acp_cntrl_acc0.sequencer.icache.read_misses            0                       # Number of cache read misses
system.ruby.acp_cntrl_acc0.sequencer.icache.write_accesses            0                       # Number of cache write accesses
system.ruby.acp_cntrl_acc0.sequencer.icache.write_hits            0                       # Number of cache write hits
system.ruby.acp_cntrl_acc0.sequencer.icache.write_misses            0                       # Number of cache write misses
system.ruby.acp_cntrl_acc1.sequencer.dcache.demand_accesses            0                       # Number of cache demand accesses
system.ruby.acp_cntrl_acc1.sequencer.dcache.demand_hits            0                       # Number of cache demand hits
system.ruby.acp_cntrl_acc1.sequencer.dcache.demand_misses            0                       # Number of cache demand misses
system.ruby.acp_cntrl_acc1.sequencer.dcache.read_accesses            0                       # Number of cache read accesses
system.ruby.acp_cntrl_acc1.sequencer.dcache.read_hits            0                       # Number of cache read hits
system.ruby.acp_cntrl_acc1.sequencer.dcache.read_misses            0                       # Number of cache read misses
system.ruby.acp_cntrl_acc1.sequencer.dcache.write_accesses            0                       # Number of cache write accesses
system.ruby.acp_cntrl_acc1.sequencer.dcache.write_hits            0                       # Number of cache write hits
system.ruby.acp_cntrl_acc1.sequencer.dcache.write_misses            0                       # Number of cache write misses
system.ruby.acp_cntrl_acc1.sequencer.icache.demand_accesses            0                       # Number of cache demand accesses
system.ruby.acp_cntrl_acc1.sequencer.icache.demand_hits            0                       # Number of cache demand hits
system.ruby.acp_cntrl_acc1.sequencer.icache.demand_misses            0                       # Number of cache demand misses
system.ruby.acp_cntrl_acc1.sequencer.icache.read_accesses            0                       # Number of cache read accesses
system.ruby.acp_cntrl_acc1.sequencer.icache.read_hits            0                       # Number of cache read hits
system.ruby.acp_cntrl_acc1.sequencer.icache.read_misses            0                       # Number of cache read misses
system.ruby.acp_cntrl_acc1.sequencer.icache.write_accesses            0                       # Number of cache write accesses
system.ruby.acp_cntrl_acc1.sequencer.icache.write_hits            0                       # Number of cache write hits
system.ruby.acp_cntrl_acc1.sequencer.icache.write_misses            0                       # Number of cache write misses
system.ruby.delayHist::bucket_size                  1                       # delay histogram for all message
system.ruby.delayHist::max_bucket                   9                       # delay histogram for all message
system.ruby.delayHist::samples                   1196                       # delay histogram for all message
system.ruby.delayHist::mean                  0.025084                       # delay histogram for all message
system.ruby.delayHist::stdev                 0.331407                       # delay histogram for all message
system.ruby.delayHist                    |        1189     99.41%     99.41% |           0      0.00%     99.41% |           0      0.00%     99.41% |           0      0.00%     99.41% |           6      0.50%     99.92% |           0      0.00%     99.92% |           1      0.08%    100.00% |           0      0.00%    100.00% |           0      0.00%    100.00% |           0      0.00%    100.00% # delay histogram for all message
system.ruby.delayHist::total                     1196                       # delay histogram for all message
system.ruby.delayVCHist.vnet_0::bucket_size            1                       # delay histogram for vnet_0
system.ruby.delayVCHist.vnet_0::max_bucket            9                       # delay histogram for vnet_0
system.ruby.delayVCHist.vnet_0::samples           502                       # delay histogram for vnet_0
system.ruby.delayVCHist.vnet_0::mean         0.051793                       # delay histogram for vnet_0
system.ruby.delayVCHist.vnet_0::stdev        0.478382                       # delay histogram for vnet_0
system.ruby.delayVCHist.vnet_0           |         496     98.80%     98.80% |           0      0.00%     98.80% |           0      0.00%     98.80% |           0      0.00%     98.80% |           5      1.00%     99.80% |           0      0.00%     99.80% |           1      0.20%    100.00% |           0      0.00%    100.00% |           0      0.00%    100.00% |           0      0.00%    100.00% # delay histogram for vnet_0
system.ruby.delayVCHist.vnet_0::total             502                       # delay histogram for vnet_0
system.ruby.delayVCHist.vnet_1::bucket_size            1                       # delay histogram for vnet_1
system.ruby.delayVCHist.vnet_1::max_bucket            9                       # delay histogram for vnet_1
system.ruby.delayVCHist.vnet_1::samples           694                       # delay histogram for vnet_1
system.ruby.delayVCHist.vnet_1::mean         0.005764                       # delay histogram for vnet_1
system.ruby.delayVCHist.vnet_1::stdev        0.151838                       # delay histogram for vnet_1
system.ruby.delayVCHist.vnet_1           |         693     99.86%     99.86% |           0      0.00%     99.86% |           0      0.00%     99.86% |           0      0.00%     99.86% |           1      0.14%    100.00% |           0      0.00%    100.00% |           0      0.00%    100.00% |           0      0.00%    100.00% |           0      0.00%    100.00% |           0      0.00%    100.00% # delay histogram for vnet_1
system.ruby.delayVCHist.vnet_1::total             694                       # delay histogram for vnet_1
system.ruby.dir_cntrl0.requestToDir.avg_buf_msgs     0.012882                       # Average number of messages in buffer
system.ruby.dir_cntrl0.requestToDir.avg_stall_time  4001.671299                       # Average number of cycles messages are stalled in this MB
system.ruby.dir_cntrl0.responseFromDir.avg_buf_msgs     0.012882                       # Average number of messages in buffer
system.ruby.dir_cntrl0.responseFromDir.avg_stall_time   497.014197                       # Average number of cycles messages are stalled in this MB
system.ruby.dir_cntrl0.responseFromMemory.avg_buf_msgs     0.013727                       # Average number of messages in buffer
system.ruby.dir_cntrl0.responseFromMemory.avg_stall_time   497.032976                       # Average number of cycles messages are stalled in this MB
system.ruby.hit_latency_hist_seqr::bucket_size            1                      
system.ruby.hit_latency_hist_seqr::max_bucket            9                      
system.ruby.hit_latency_hist_seqr::samples         2512                      
system.ruby.hit_latency_hist_seqr        |        2512    100.00%    100.00% |           0      0.00%    100.00% |           0      0.00%    100.00% |           0      0.00%    100.00% |           0      0.00%    100.00% |           0      0.00%    100.00% |           0      0.00%    100.00% |           0      0.00%    100.00% |           0      0.00%    100.00% |           0      0.00%    100.00%
system.ruby.hit_latency_hist_seqr::total         2512                      
system.ruby.l1_cntrl0.L1Dcache.demand_accesses         1275                       # Number of cache demand accesses
system.ruby.l1_cntrl0.L1Dcache.demand_hits         1119                       # Number of cache demand hits
system.ruby.l1_cntrl0.L1Dcache.demand_misses          156                       # Number of cache demand misses
system.ruby.l1_cntrl0.L1Dcache.read_accesses            0                       # Number of cache read accesses
system.ruby.l1_cntrl0.L1Dcache.read_hits            0                       # Number of cache read hits
system.ruby.l1_cntrl0.L1Dcache.read_misses            0                       # Number of cache read misses
system.ruby.l1_cntrl0.L1Dcache.write_accesses            0                       # Number of cache write accesses
system.ruby.l1_cntrl0.L1Dcache.write_hits            0                       # Number of cache write hits
system.ruby.l1_cntrl0.L1Dcache.write_misses            0                       # Number of cache write misses
system.ruby.l1_cntrl0.L1Icache.demand_accesses         1588                       # Number of cache demand accesses
system.ruby.l1_cntrl0.L1Icache.demand_hits         1393                       # Number of cache demand hits
system.ruby.l1_cntrl0.L1Icache.demand_misses          195                       # Number of cache demand misses
system.ruby.l1_cntrl0.L1Icache.read_accesses            0                       # Number of cache read accesses
system.ruby.l1_cntrl0.L1Icache.read_hits            0                       # Number of cache read hits
system.ruby.l1_cntrl0.L1Icache.read_misses            0                       # Number of cache read misses
system.ruby.l1_cntrl0.L1Icache.write_accesses            0                       # Number of cache write accesses
system.ruby.l1_cntrl0.L1Icache.write_hits            0                       # Number of cache write hits
system.ruby.l1_cntrl0.L1Icache.write_misses            0                       # Number of cache write misses
system.ruby.l1_cntrl0.fully_busy_cycles            21                       # cycles for which number of transistions == max transitions
system.ruby.l1_cntrl0.mandatoryQueue.avg_buf_msgs     0.107677                       # Average number of messages in buffer
system.ruby.l1_cntrl0.mandatoryQueue.avg_stall_time   500.018779                       # Average number of cycles messages are stalled in this MB
system.ruby.l1_cntrl0.prefetcher.allocated_streams            0                       # number of streams allocated for prefetching
system.ruby.l1_cntrl0.prefetcher.dropped_prefetches            0                       # number of prefetch requests dropped
system.ruby.l1_cntrl0.prefetcher.hits               0                       # number of prefetched blocks accessed
system.ruby.l1_cntrl0.prefetcher.miss_observed            0                       # number of misses observed
system.ruby.l1_cntrl0.prefetcher.misses_on_prefetched_blocks            0                       # number of misses for blocks that were prefetched, yet missed
system.ruby.l1_cntrl0.prefetcher.pages_crossed            0                       # number of prefetches across pages
system.ruby.l1_cntrl0.prefetcher.partial_hits            0                       # number of misses observed for a block being prefetched
system.ruby.l1_cntrl0.prefetcher.prefetches_accepted            0                       # number of prefetch requests accepted
system.ruby.l1_cntrl0.prefetcher.prefetches_requested            0                       # number of prefetch requests made
system.ruby.l1_cntrl0.requestFromL1Cache.avg_buf_msgs     0.026365                       # Average number of messages in buffer
system.ruby.l1_cntrl0.requestFromL1Cache.avg_stall_time   999.812214                       # Average number of cycles messages are stalled in this MB
system.ruby.l1_cntrl0.responseToL1Cache.avg_buf_msgs     0.013183                       # Average number of messages in buffer
system.ruby.l1_cntrl0.responseToL1Cache.avg_stall_time  3498.760610                       # Average number of cycles messages are stalled in this MB
system.ruby.l1_cntrl0.unblockFromL1Cache.avg_buf_msgs     0.005671                       # Average number of messages in buffer
system.ruby.l1_cntrl0.unblockFromL1Cache.avg_stall_time   493.577706                       # Average number of cycles messages are stalled in this MB
system.ruby.l1_cntrl_acc0.L1Dcache.demand_accesses            0                       # Number of cache demand accesses
system.ruby.l1_cntrl_acc0.L1Dcache.demand_hits            0                       # Number of cache demand hits
system.ruby.l1_cntrl_acc0.L1Dcache.demand_misses            0                       # Number of cache demand misses
system.ruby.l1_cntrl_acc0.L1Dcache.read_accesses            0                       # Number of cache read accesses
system.ruby.l1_cntrl_acc0.L1Dcache.read_hits            0                       # Number of cache read hits
system.ruby.l1_cntrl_acc0.L1Dcache.read_misses            0                       # Number of cache read misses
system.ruby.l1_cntrl_acc0.L1Dcache.write_accesses            0                       # Number of cache write accesses
system.ruby.l1_cntrl_acc0.L1Dcache.write_hits            0                       # Number of cache write hits
system.ruby.l1_cntrl_acc0.L1Dcache.write_misses            0                       # Number of cache write misses
system.ruby.l1_cntrl_acc0.L1Icache.demand_accesses            0                       # Number of cache demand accesses
system.ruby.l1_cntrl_acc0.L1Icache.demand_hits            0                       # Number of cache demand hits
system.ruby.l1_cntrl_acc0.L1Icache.demand_misses            0                       # Number of cache demand misses
system.ruby.l1_cntrl_acc0.L1Icache.read_accesses            0                       # Number of cache read accesses
system.ruby.l1_cntrl_acc0.L1Icache.read_hits            0                       # Number of cache read hits
system.ruby.l1_cntrl_acc0.L1Icache.read_misses            0                       # Number of cache read misses
system.ruby.l1_cntrl_acc0.L1Icache.write_accesses            0                       # Number of cache write accesses
system.ruby.l1_cntrl_acc0.L1Icache.write_hits            0                       # Number of cache write hits
system.ruby.l1_cntrl_acc0.L1Icache.write_misses            0                       # Number of cache write misses
system.ruby.l1_cntrl_acc0.prefetcher.allocated_streams            0                       # number of streams allocated for prefetching
system.ruby.l1_cntrl_acc0.prefetcher.dropped_prefetches            0                       # number of prefetch requests dropped
system.ruby.l1_cntrl_acc0.prefetcher.hits            0                       # number of prefetched blocks accessed
system.ruby.l1_cntrl_acc0.prefetcher.miss_observed            0                       # number of misses observed
system.ruby.l1_cntrl_acc0.prefetcher.misses_on_prefetched_blocks            0                       # number of misses for blocks that were prefetched, yet missed
system.ruby.l1_cntrl_acc0.prefetcher.pages_crossed            0                       # number of prefetches across pages
system.ruby.l1_cntrl_acc0.prefetcher.partial_hits            0                       # number of misses observed for a block being prefetched
system.ruby.l1_cntrl_acc0.prefetcher.prefetches_accepted            0                       # number of prefetch requests accepted
system.ruby.l1_cntrl_acc0.prefetcher.prefetches_requested            0                       # number of prefetch requests made
system.ruby.l1_cntrl_acc1.L1Dcache.demand_accesses            0                       # Number of cache demand accesses
system.ruby.l1_cntrl_acc1.L1Dcache.demand_hits            0                       # Number of cache demand hits
system.ruby.l1_cntrl_acc1.L1Dcache.demand_misses            0                       # Number of cache demand misses
system.ruby.l1_cntrl_acc1.L1Dcache.read_accesses            0                       # Number of cache read accesses
system.ruby.l1_cntrl_acc1.L1Dcache.read_hits            0                       # Number of cache read hits
system.ruby.l1_cntrl_acc1.L1Dcache.read_misses            0                       # Number of cache read misses
system.ruby.l1_cntrl_acc1.L1Dcache.write_accesses            0                       # Number of cache write accesses
system.ruby.l1_cntrl_acc1.L1Dcache.write_hits            0                       # Number of cache write hits
system.ruby.l1_cntrl_acc1.L1Dcache.write_misses            0                       # Number of cache write misses
system.ruby.l1_cntrl_acc1.L1Icache.demand_accesses            0                       # Number of cache demand accesses
system.ruby.l1_cntrl_acc1.L1Icache.demand_hits            0                       # Number of cache demand hits
system.ruby.l1_cntrl_acc1.L1Icache.demand_misses            0                       # Number of cache demand misses
system.ruby.l1_cntrl_acc1.L1Icache.read_accesses            0                       # Number of cache read accesses
system.ruby.l1_cntrl_acc1.L1Icache.read_hits            0                       # Number of cache read hits
system.ruby.l1_cntrl_acc1.L1Icache.read_misses            0                       # Number of cache read misses
system.ruby.l1_cntrl_acc1.L1Icache.write_accesses            0                       # Number of cache write accesses
system.ruby.l1_cntrl_acc1.L1Icache.write_hits            0                       # Number of cache write hits
system.ruby.l1_cntrl_acc1.L1Icache.write_misses            0                       # Number of cache write misses
system.ruby.l1_cntrl_acc1.prefetcher.allocated_streams            0                       # number of streams allocated for prefetching
system.ruby.l1_cntrl_acc1.prefetcher.dropped_prefetches            0                       # number of prefetch requests dropped
system.ruby.l1_cntrl_acc1.prefetcher.hits            0                       # number of prefetched blocks accessed
system.ruby.l1_cntrl_acc1.prefetcher.miss_observed            0                       # number of misses observed
system.ruby.l1_cntrl_acc1.prefetcher.misses_on_prefetched_blocks            0                       # number of misses for blocks that were prefetched, yet missed
system.ruby.l1_cntrl_acc1.prefetcher.pages_crossed            0                       # number of prefetches across pages
system.ruby.l1_cntrl_acc1.prefetcher.partial_hits            0                       # number of misses observed for a block being prefetched
system.ruby.l1_cntrl_acc1.prefetcher.prefetches_accepted            0                       # number of prefetch requests accepted
system.ruby.l1_cntrl_acc1.prefetcher.prefetches_requested            0                       # number of prefetch requests made
system.ruby.l2_cntrl0.DirRequestFromL2Cache.avg_buf_msgs     0.025764                       # Average number of messages in buffer
system.ruby.l2_cntrl0.DirRequestFromL2Cache.avg_stall_time   999.511755                       # Average number of cycles messages are stalled in this MB
system.ruby.l2_cntrl0.L1RequestToL2Cache.avg_buf_msgs     0.013183                       # Average number of messages in buffer
system.ruby.l2_cntrl0.L1RequestToL2Cache.avg_stall_time  4009.220310                       # Average number of cycles messages are stalled in this MB
system.ruby.l2_cntrl0.L2cache.demand_accesses          351                       # Number of cache demand accesses
system.ruby.l2_cntrl0.L2cache.demand_hits            8                       # Number of cache demand hits
system.ruby.l2_cntrl0.L2cache.demand_misses          343                       # Number of cache demand misses
system.ruby.l2_cntrl0.L2cache.read_accesses          351                       # Number of cache read accesses
system.ruby.l2_cntrl0.L2cache.read_hits             8                       # Number of cache read hits
system.ruby.l2_cntrl0.L2cache.read_misses          343                       # Number of cache read misses
system.ruby.l2_cntrl0.L2cache.write_accesses            0                       # Number of cache write accesses
system.ruby.l2_cntrl0.L2cache.write_hits            0                       # Number of cache write hits
system.ruby.l2_cntrl0.L2cache.write_misses            0                       # Number of cache write misses
system.ruby.l2_cntrl0.responseFromL2Cache.avg_buf_msgs     0.013483                       # Average number of messages in buffer
system.ruby.l2_cntrl0.responseFromL2Cache.avg_stall_time   516.487642                       # Average number of cycles messages are stalled in this MB
system.ruby.l2_cntrl0.responseToL2Cache.avg_buf_msgs     0.012882                       # Average number of messages in buffer
system.ruby.l2_cntrl0.responseToL2Cache.avg_stall_time  3478.310675                       # Average number of cycles messages are stalled in this MB
system.ruby.l2_cntrl0.unblockToL2Cache.avg_buf_msgs     0.005671                       # Average number of messages in buffer
system.ruby.l2_cntrl0.unblockToL2Cache.avg_stall_time  3454.255243                       # Average number of cycles messages are stalled in this MB
system.ruby.latency_hist_seqr::bucket_size            1                      
system.ruby.latency_hist_seqr::max_bucket            9                      
system.ruby.latency_hist_seqr::samples           2863                      
system.ruby.latency_hist_seqr            |        2863    100.00%    100.00% |           0      0.00%    100.00% |           0      0.00%    100.00% |           0      0.00%    100.00% |           0      0.00%    100.00% |           0      0.00%    100.00% |           0      0.00%    100.00% |           0      0.00%    100.00% |           0      0.00%    100.00% |           0      0.00%    100.00%
system.ruby.latency_hist_seqr::total             2863                      
system.ruby.miss_latency_hist_seqr::bucket_size            1                      
system.ruby.miss_latency_hist_seqr::max_bucket            9                      
system.ruby.miss_latency_hist_seqr::samples          351                      
system.ruby.miss_latency_hist_seqr       |         351    100.00%    100.00% |           0      0.00%    100.00% |           0      0.00%    100.00% |           0      0.00%    100.00% |           0      0.00%    100.00% |           0      0.00%    100.00% |           0      0.00%    100.00% |           0      0.00%    100.00% |           0      0.00%    100.00% |           0      0.00%    100.00%
system.ruby.miss_latency_hist_seqr::total          351                      
system.ruby.network.int_link_buffers000.avg_buf_msgs     0.013183                       # Average number of messages in buffer
system.ruby.network.int_link_buffers000.avg_stall_time  1999.474198                       # Average number of cycles messages are stalled in this MB
system.ruby.network.int_link_buffers002.avg_buf_msgs     0.005671                       # Average number of messages in buffer
system.ruby.network.int_link_buffers002.avg_stall_time  1480.620448                       # Average number of cycles messages are stalled in this MB
system.ruby.network.int_link_buffers003.avg_buf_msgs     0.012882                       # Average number of messages in buffer
system.ruby.network.int_link_buffers003.avg_stall_time  2003.398933                       # Average number of cycles messages are stalled in this MB
system.ruby.network.int_link_buffers004.avg_buf_msgs     0.013183                       # Average number of messages in buffer
system.ruby.network.int_link_buffers004.avg_stall_time  1511.905655                       # Average number of cycles messages are stalled in this MB
system.ruby.network.int_link_buffers007.avg_buf_msgs     0.012882                       # Average number of messages in buffer
system.ruby.network.int_link_buffers007.avg_stall_time  1490.929919                       # Average number of cycles messages are stalled in this MB
system.ruby.network.int_link_buffers028.avg_buf_msgs     0.013183                       # Average number of messages in buffer
system.ruby.network.int_link_buffers028.avg_stall_time  2505.408247                       # Average number of cycles messages are stalled in this MB
system.ruby.network.int_link_buffers030.avg_buf_msgs     0.013183                       # Average number of messages in buffer
system.ruby.network.int_link_buffers030.avg_stall_time  3009.858784                       # Average number of cycles messages are stalled in this MB
system.ruby.network.int_link_buffers031.avg_buf_msgs     0.012882                       # Average number of messages in buffer
system.ruby.network.int_link_buffers031.avg_stall_time  2484.695412                       # Average number of cycles messages are stalled in this MB
system.ruby.network.int_link_buffers032.avg_buf_msgs     0.005671                       # Average number of messages in buffer
system.ruby.network.int_link_buffers032.avg_stall_time  2467.512960                       # Average number of cycles messages are stalled in this MB
system.ruby.network.int_link_buffers033.avg_buf_msgs     0.012882                       # Average number of messages in buffer
system.ruby.network.int_link_buffers033.avg_stall_time  3002.610230                       # Average number of cycles messages are stalled in this MB
system.ruby.network.msg_byte.Control            16656                      
system.ruby.network.msg_byte.Response_Control         3624                      
system.ruby.network.msg_byte.Response_Data        83280                      
system.ruby.network.msg_count.Control            2082                      
system.ruby.network.msg_count.Response_Control          453                      
system.ruby.network.msg_count.Response_Data         2082                      
system.ruby.network.routers0.msg_bytes.Control::0         2808                      
system.ruby.network.routers0.msg_bytes.Response_Control::2         1208                      
system.ruby.network.routers0.msg_bytes.Response_Data::1        14040                      
system.ruby.network.routers0.msg_count.Control::0          351                      
system.ruby.network.routers0.msg_count.Response_Control::2          151                      
system.ruby.network.routers0.msg_count.Response_Data::1          351                      
system.ruby.network.routers0.percent_links_utilized     2.119169                      
system.ruby.network.routers0.port_buffers01.avg_buf_msgs     0.013183                       # Average number of messages in buffer
system.ruby.network.routers0.port_buffers01.avg_stall_time  3002.103207                       # Average number of cycles messages are stalled in this MB
system.ruby.network.routers0.port_buffers03.avg_buf_msgs     0.013183                       # Average number of messages in buffer
system.ruby.network.routers0.port_buffers03.avg_stall_time  1499.661985                       # Average number of cycles messages are stalled in this MB
system.ruby.network.routers0.port_buffers05.avg_buf_msgs     0.005671                       # Average number of messages in buffer
system.ruby.network.routers0.port_buffers05.avg_stall_time   987.117856                       # Average number of cycles messages are stalled in this MB
system.ruby.network.routers0.throttle0.link_utilization     3.295651                      
system.ruby.network.routers0.throttle0.msg_bytes.Response_Data::1        14040                      
system.ruby.network.routers0.throttle0.msg_count.Response_Data::1          351                      
system.ruby.network.routers0.throttle1.link_utilization     0.942688                      
system.ruby.network.routers0.throttle1.msg_bytes.Control::0         2808                      
system.ruby.network.routers0.throttle1.msg_bytes.Response_Control::2         1208                      
system.ruby.network.routers0.throttle1.msg_count.Control::0          351                      
system.ruby.network.routers0.throttle1.msg_count.Response_Control::2          151                      
system.ruby.network.routers1.msg_bytes.Control::0         5552                      
system.ruby.network.routers1.msg_bytes.Response_Control::2         1208                      
system.ruby.network.routers1.msg_bytes.Response_Data::1        27760                      
system.ruby.network.routers1.msg_count.Control::0          694                      
system.ruby.network.routers1.msg_count.Response_Control::2          151                      
system.ruby.network.routers1.msg_count.Response_Data::1          694                      
system.ruby.network.routers1.percent_links_utilized     4.051491                      
system.ruby.network.routers1.port_buffers00.avg_buf_msgs     0.013183                       # Average number of messages in buffer
system.ruby.network.routers1.port_buffers00.avg_stall_time  3509.558326                       # Average number of cycles messages are stalled in this MB
system.ruby.network.routers1.port_buffers01.avg_buf_msgs     0.012882                       # Average number of messages in buffer
system.ruby.network.routers1.port_buffers01.avg_stall_time  2981.521822                       # Average number of cycles messages are stalled in this MB
system.ruby.network.routers1.port_buffers02.avg_buf_msgs     0.005671                       # Average number of messages in buffer
system.ruby.network.routers1.port_buffers02.avg_stall_time  2960.902880                       # Average number of cycles messages are stalled in this MB
system.ruby.network.routers1.port_buffers03.avg_buf_msgs     0.013145                       # Average number of messages in buffer
system.ruby.network.routers1.port_buffers03.avg_stall_time  1503.736949                       # Average number of cycles messages are stalled in this MB
system.ruby.network.routers1.port_buffers04.avg_buf_msgs     0.013258                       # Average number of messages in buffer
system.ruby.network.routers1.port_buffers04.avg_stall_time  1015.098023                       # Average number of cycles messages are stalled in this MB
system.ruby.network.routers1.throttle0.link_utilization     4.163224                      
system.ruby.network.routers1.throttle0.msg_bytes.Control::0         2808                      
system.ruby.network.routers1.throttle0.msg_bytes.Response_Control::2         1208                      
system.ruby.network.routers1.throttle0.msg_bytes.Response_Data::1        13720                      
system.ruby.network.routers1.throttle0.msg_count.Control::0          351                      
system.ruby.network.routers1.throttle0.msg_count.Response_Control::2          151                      
system.ruby.network.routers1.throttle0.msg_count.Response_Data::1          343                      
system.ruby.network.routers1.throttle1.link_utilization     3.939758                      
system.ruby.network.routers1.throttle1.msg_bytes.Control::0         2744                      
system.ruby.network.routers1.throttle1.msg_bytes.Response_Data::1        14040                      
system.ruby.network.routers1.throttle1.msg_count.Control::0          343                      
system.ruby.network.routers1.throttle1.msg_count.Response_Data::1          351                      
system.ruby.network.routers2.msg_bytes.Control::0         2744                      
system.ruby.network.routers2.msg_bytes.Response_Data::1        13720                      
system.ruby.network.routers2.msg_count.Control::0          343                      
system.ruby.network.routers2.msg_count.Response_Data::1          343                      
system.ruby.network.routers2.percent_links_utilized     1.932322                      
system.ruby.network.routers2.port_buffers00.avg_buf_msgs     0.012882                       # Average number of messages in buffer
system.ruby.network.routers2.port_buffers00.avg_stall_time  3502.159543                       # Average number of cycles messages are stalled in this MB
system.ruby.network.routers2.port_buffers03.avg_buf_msgs     0.012882                       # Average number of messages in buffer
system.ruby.network.routers2.port_buffers03.avg_stall_time   993.990836                       # Average number of cycles messages are stalled in this MB
system.ruby.network.routers2.throttle0.link_utilization     0.644107                      
system.ruby.network.routers2.throttle0.msg_bytes.Control::0         2744                      
system.ruby.network.routers2.throttle0.msg_count.Control::0          343                      
system.ruby.network.routers2.throttle1.link_utilization     3.220536                      
system.ruby.network.routers2.throttle1.msg_bytes.Response_Data::1        13720                      
system.ruby.network.routers2.throttle1.msg_count.Response_Data::1          343                      
system.ruby.network.routers3.percent_links_utilized            0                      
system.ruby.network.routers3.throttle0.link_utilization            0                      
system.ruby.network.routers3.throttle1.link_utilization            0                      
system.ruby.network.routers4.percent_links_utilized            0                      
system.ruby.network.routers4.throttle0.link_utilization            0                      
system.ruby.network.routers4.throttle1.link_utilization            0                      
system.ruby.network.routers5.percent_links_utilized            0                      
system.ruby.network.routers5.throttle0.link_utilization            0                      
system.ruby.network.routers5.throttle1.link_utilization            0                      
system.ruby.network.routers6.percent_links_utilized            0                      
system.ruby.network.routers6.throttle0.link_utilization            0                      
system.ruby.network.routers6.throttle1.link_utilization            0                      
system.ruby.network.routers7.percent_links_utilized            0                      
system.ruby.network.routers7.throttle0.link_utilization            0                      
system.ruby.network.routers7.throttle1.link_utilization            0                      
system.ruby.network.routers8.percent_links_utilized            0                      
[...]
system.mem_ctrls.rdQLenPdf::14                      0                       # What read queue length does an incoming req see
system.mem_ctrls.rdQLenPdf::15                      0                       # What read queue length does an incoming req see
system.mem_ctrls.rdQLenPdf::16                      0                       # What read queue length does an incoming req see
system.mem_ctrls.rdQLenPdf::17                      0                       # What read queue length does an incoming req see
system.mem_ctrls.rdQLenPdf::18                      0                       # What read queue length does an incoming req see
system.mem_ctrls.rdQLenPdf::19                      0                       # What read queue length does an incoming req see
system.mem_ctrls.rdQLenPdf::20                      0                       # What read queue length does an incoming req see
system.mem_ctrls.rdQLenPdf::21                      0                       # What read queue length does an incoming req see
system.mem_ctrls.rdQLenPdf::22                      0                       # What read queue length does an incoming req see
system.mem_ctrls.rdQLenPdf::23                      0                       # What read queue length does an incoming req see
system.mem_ctrls.rdQLenPdf::24                      0                       # What read queue length does an incoming req see
system.mem_ctrls.rdQLenPdf::25                      0                       # What read queue length does an incoming req see
system.mem_ctrls.rdQLenPdf::26                      0                       # What read queue length does an incoming req see
system.mem_ctrls.rdQLenPdf::27                      0                       # What read queue length does an incoming req see
system.mem_ctrls.rdQLenPdf::28                      0                       # What read queue length does an incoming req see
system.mem_ctrls.rdQLenPdf::29                      0                       # What read queue length does an incoming req see
system.mem_ctrls.rdQLenPdf::30                      0                       # What read queue length does an incoming req see
system.mem_ctrls.rdQLenPdf::31                      0                       # What read queue length does an incoming req see
system.mem_ctrls.wrQLenPdf::0                       0                       # What write queue length does an incoming req see
system.mem_ctrls.wrQLenPdf::1                       0                       # What write queue length does an incoming req see
system.mem_ctrls.wrQLenPdf::2                       0                       # What write queue length does an incoming req see
system.mem_ctrls.wrQLenPdf::3                       0                       # What write queue length does an incoming req see
system.mem_ctrls.wrQLenPdf::4                       0                       # What write queue length does an incoming req see
system.mem_ctrls.wrQLenPdf::5                       0                       # What write queue length does an incoming req see
system.mem_ctrls.wrQLenPdf::6                       0                       # What write queue length does an incoming req see
system.mem_ctrls.wrQLenPdf::7                       0                       # What write queue length does an incoming req see
system.mem_ctrls.wrQLenPdf::8                       0                       # What write queue length does an incoming req see
system.mem_ctrls.wrQLenPdf::9                       0                       # What write queue length does an incoming req see
system.mem_ctrls.wrQLenPdf::10                      0                       # What write queue length does an incoming req see
system.mem_ctrls.wrQLenPdf::11                      0                       # What write queue length does an incoming req see
system.mem_ctrls.wrQLenPdf::12                      0                       # What write queue length does an incoming req see
system.mem_ctrls.wrQLenPdf::13                      0                       # What write queue length does an incoming req see
system.mem_ctrls.wrQLenPdf::14                      0                       # What write queue length does an incoming req see
system.mem_ctrls.wrQLenPdf::15                      0                       # What write queue length does an incoming req see
system.mem_ctrls.wrQLenPdf::16                      0                       # What write queue length does an incoming req see
system.mem_ctrls.wrQLenPdf::17                      0                       # What write queue length does an incoming req see
system.mem_ctrls.wrQLenPdf::18                      0                       # What write queue length does an incoming req see
system.mem_ctrls.wrQLenPdf::19                      0                       # What write queue length does an incoming req see
system.mem_ctrls.wrQLenPdf::20                      0                       # What write queue length does an incoming req see
system.mem_ctrls.wrQLenPdf::21                      0                       # What write queue length does an incoming req see
system.mem_ctrls.wrQLenPdf::22                      0                       # What write queue length does an incoming req see
system.mem_ctrls.wrQLenPdf::23                      0                       # What write queue length does an incoming req see
system.mem_ctrls.wrQLenPdf::24                      0                       # What write queue length does an incoming req see
system.mem_ctrls.wrQLenPdf::25                      0                       # What write queue length does an incoming req see
system.mem_ctrls.wrQLenPdf::26                      0                       # What write queue length does an incoming req see
system.mem_ctrls.wrQLenPdf::27                      0                       # What write queue length does an incoming req see
system.mem_ctrls.wrQLenPdf::28                      0                       # What write queue length does an incoming req see
system.mem_ctrls.wrQLenPdf::29                      0                       # What write queue length does an incoming req see
system.mem_ctrls.wrQLenPdf::30                      0                       # What write queue length does an incoming req see
system.mem_ctrls.wrQLenPdf::31                      0                       # What write queue length does an incoming req see
system.mem_ctrls.wrQLenPdf::32                      0                       # What write queue length does an incoming req see
system.mem_ctrls.wrQLenPdf::33                      0                       # What write queue length does an incoming req see
system.mem_ctrls.wrQLenPdf::34                      0                       # What write queue length does an incoming req see
system.mem_ctrls.wrQLenPdf::35                      0                       # What write queue length does an incoming req see
system.mem_ctrls.wrQLenPdf::36                      0                       # What write queue length does an incoming req see
system.mem_ctrls.wrQLenPdf::37                      0                       # What write queue length does an incoming req see
system.mem_ctrls.wrQLenPdf::38                      0                       # What write queue length does an incoming req see
system.mem_ctrls.wrQLenPdf::39                      0                       # What write queue length does an incoming req see
system.mem_ctrls.wrQLenPdf::40                      0                       # What write queue length does an incoming req see
system.mem_ctrls.wrQLenPdf::41                      0                       # What write queue length does an incoming req see
system.mem_ctrls.wrQLenPdf::42                      0                       # What write queue length does an incoming req see
system.mem_ctrls.wrQLenPdf::43                      0                       # What write queue length does an incoming req see
system.mem_ctrls.wrQLenPdf::44                      0                       # What write queue length does an incoming req see
system.mem_ctrls.wrQLenPdf::45                      0                       # What write queue length does an incoming req see
system.mem_ctrls.wrQLenPdf::46                      0                       # What write queue length does an incoming req see
system.mem_ctrls.wrQLenPdf::47                      0                       # What write queue length does an incoming req see
system.mem_ctrls.wrQLenPdf::48                      0                       # What write queue length does an incoming req see
system.mem_ctrls.wrQLenPdf::49                      0                       # What write queue length does an incoming req see
system.mem_ctrls.wrQLenPdf::50                      0                       # What write queue length does an incoming req see
system.mem_ctrls.wrQLenPdf::51                      0                       # What write queue length does an incoming req see
system.mem_ctrls.wrQLenPdf::52                      0                       # What write queue length does an incoming req see
system.mem_ctrls.wrQLenPdf::53                      0                       # What write queue length does an incoming req see
system.mem_ctrls.wrQLenPdf::54                      0                       # What write queue length does an incoming req see
system.mem_ctrls.wrQLenPdf::55                      0                       # What write queue length does an incoming req see
system.mem_ctrls.wrQLenPdf::56                      0                       # What write queue length does an incoming req see
system.mem_ctrls.wrQLenPdf::57                      0                       # What write queue length does an incoming req see
system.mem_ctrls.wrQLenPdf::58                      0                       # What write queue length does an incoming req see
system.mem_ctrls.wrQLenPdf::59                      0                       # What write queue length does an incoming req see
system.mem_ctrls.wrQLenPdf::60                      0                       # What write queue length does an incoming req see
system.mem_ctrls.wrQLenPdf::61                      0                       # What write queue length does an incoming req see
system.mem_ctrls.wrQLenPdf::62                      0                       # What write queue length does an incoming req see
system.mem_ctrls.wrQLenPdf::63                      0                       # What write queue length does an incoming req see
system.mem_ctrls.bytesPerActivate::samples         1109                       # Bytes accessed per row activation
system.mem_ctrls.bytesPerActivate::mean    159.047791                       # Bytes accessed per row activation
system.mem_ctrls.bytesPerActivate::gmean   114.283193                       # Bytes accessed per row activation
system.mem_ctrls.bytesPerActivate::stdev   175.429382                       # Bytes accessed per row activation
system.mem_ctrls.bytesPerActivate::0-127          563     50.77%     50.77% # Bytes accessed per row activation
system.mem_ctrls.bytesPerActivate::128-255          358     32.28%     83.05% # Bytes accessed per row activation
system.mem_ctrls.bytesPerActivate::256-383           85      7.66%     90.71% # Bytes accessed per row activation
system.mem_ctrls.bytesPerActivate::384-511           41      3.70%     94.41% # Bytes accessed per row activation
system.mem_ctrls.bytesPerActivate::512-639           17      1.53%     95.94% # Bytes accessed per row activation
system.mem_ctrls.bytesPerActivate::640-767           13      1.17%     97.11% # Bytes accessed per row activation
system.mem_ctrls.bytesPerActivate::768-895           11      0.99%     98.11% # Bytes accessed per row activation
system.mem_ctrls.bytesPerActivate::896-1023            7      0.63%     98.74% # Bytes accessed per row activation
system.mem_ctrls.bytesPerActivate::1024-1151           14      1.26%    100.00% # Bytes accessed per row activation
system.mem_ctrls.bytesPerActivate::total         1109                       # Bytes accessed per row activation
system.mem_ctrls.bytesReadDRAM                 177344                       # Total number of bytes read from DRAM
system.mem_ctrls.bytesReadWrQ                      64                       # Total number of bytes read from write queue
system.mem_ctrls.bytesWritten                       0                       # Total number of bytes written to DRAM
system.mem_ctrls.bytesReadSys                   88704                       # Total read bytes from the system interface side
system.mem_ctrls.bytesWrittenSys                    0                       # Total written bytes from the system interface side
system.mem_ctrls.avgRdBW                       920.83                       # Average DRAM read bandwidth in MiByte/s
system.mem_ctrls.avgWrBW                         0.00                       # Average achieved write bandwidth in MiByte/s
system.mem_ctrls.avgRdBWSys                    460.58                       # Average system read bandwidth in MiByte/s
system.mem_ctrls.avgWrBWSys                      0.00                       # Average system write bandwidth in MiByte/s
system.mem_ctrls.peakBW                      12800.00                       # Theoretical peak bandwidth in MiByte/s
system.mem_ctrls.busUtil                         7.19                       # Data bus utilization in percentage
system.mem_ctrls.busUtilRead                     7.19                       # Data bus utilization in percentage for reads
system.mem_ctrls.busUtilWrite                    0.00                       # Data bus utilization in percentage for writes
system.mem_ctrls.totGap                     192609000                       # Total gap between requests
system.mem_ctrls.avgGap                      69483.77                       # Average gap between requests
system.mem_ctrls.masterReadBytes::.ruby.dir_cntrl0        88672                       # Per-master bytes read from memory
system.mem_ctrls.masterReadRate::.ruby.dir_cntrl0 460413724.349921047688                       # Per-master bytes read from memory rate (Bytes/sec)
system.mem_ctrls.masterReadAccesses::.ruby.dir_cntrl0         2772                       # Per-master read serviced memory accesses
system.mem_ctrls.masterReadTotalLat::.ruby.dir_cntrl0    116196730                       # Per-master read total memory access latency
system.mem_ctrls.masterReadAvgLat::.ruby.dir_cntrl0     41918.01                       # Per-master read average memory access latency
system.mem_ctrls.pageHitRate                    60.01                       # Row buffer hit rate, read and write combined
system.mem_ctrls.rank1.actEnergy              1578824                       # Energy for activate commands per rank (pJ)
system.mem_ctrls.rank1.preEnergy         771724.800000                       # Energy for precharge commands per rank (pJ)
system.mem_ctrls.rank1.readEnergy             6332172                       # Energy for read commands per rank (pJ)
system.mem_ctrls.rank1.writeEnergy                  0                       # Energy for write commands per rank (pJ)
system.mem_ctrls.rank1.refreshEnergy     3891960.000000                       # Energy for refresh commands per rank (pJ)
system.mem_ctrls.rank1.actBackEnergy     17649659.250000                       # Energy for active background per rank (pJ)
system.mem_ctrls.rank1.preBackEnergy     819122.400000                       # Energy for precharge background per rank (pJ)
system.mem_ctrls.rank1.actPowerDownEnergy            0                       # Energy for active power-down per rank (pJ)
system.mem_ctrls.rank1.prePowerDownEnergy            0                       # Energy for precharge power-down per rank (pJ)
system.mem_ctrls.rank1.selfRefreshEnergy            0                       # Energy for self refresh per rank (pJ)
system.mem_ctrls.rank1.totalEnergy       31043462.450000                       # Total energy per rank (pJ)
system.mem_ctrls.rank1.averagePower        161.187705                       # Core power per rank (mW)
system.mem_ctrls.rank1.totalIdleTime                0                       # Total Idle time Per DRAM Rank
system.mem_ctrls.rank1.memoryStateTime::IDLE      7878000                       # Time in different power states
system.mem_ctrls.rank1.memoryStateTime::REF      9000000                       # Time in different power states
system.mem_ctrls.rank1.memoryStateTime::SREF            0                       # Time in different power states
system.mem_ctrls.rank1.memoryStateTime::PRE_PDN            0                       # Time in different power states
system.mem_ctrls.rank1.memoryStateTime::ACT    175714000                       # Time in different power states
system.mem_ctrls.rank1.memoryStateTime::ACT_PDN            0                       # Time in different power states
system.mem_ctrls.rank0.actEnergy         1785285.600000                       # Energy for activate commands per rank (pJ)
system.mem_ctrls.rank0.preEnergy         867820.800000                       # Energy for precharge commands per rank (pJ)
system.mem_ctrls.rank0.readEnergy             7750050                       # Energy for read commands per rank (pJ)
system.mem_ctrls.rank0.writeEnergy                  0                       # Energy for write commands per rank (pJ)
system.mem_ctrls.rank0.refreshEnergy     3891960.000000                       # Energy for refresh commands per rank (pJ)
system.mem_ctrls.rank0.actBackEnergy     17852073.150000                       # Energy for active background per rank (pJ)
system.mem_ctrls.rank0.preBackEnergy     644043.600000                       # Energy for precharge background per rank (pJ)
system.mem_ctrls.rank0.actPowerDownEnergy            0                       # Energy for active power-down per rank (pJ)
system.mem_ctrls.rank0.prePowerDownEnergy            0                       # Energy for precharge power-down per rank (pJ)
system.mem_ctrls.rank0.selfRefreshEnergy            0                       # Energy for self refresh per rank (pJ)
system.mem_ctrls.rank0.totalEnergy       32791233.150000                       # Total energy per rank (pJ)
system.mem_ctrls.rank0.averagePower        170.262696                       # Core power per rank (mW)
system.mem_ctrls.rank0.totalIdleTime                0                       # Total Idle time Per DRAM Rank
system.mem_ctrls.rank0.memoryStateTime::IDLE      5833250                       # Time in different power states
system.mem_ctrls.rank0.memoryStateTime::REF      9000000                       # Time in different power states
system.mem_ctrls.rank0.memoryStateTime::SREF            0                       # Time in different power states
system.mem_ctrls.rank0.memoryStateTime::PRE_PDN            0                       # Time in different power states
system.mem_ctrls.rank0.memoryStateTime::ACT    177758750                       # Time in different power states
system.mem_ctrls.rank0.memoryStateTime::ACT_PDN            0                       # Time in different power states
system.cpu_clk_domain.clock                       400                       # Clock period in ticks
system.cpu.numPwrStateTransitions                   2                       # Number of power state transitions
system.cpu.pwrStateResidencyTicks::ON     50078186000                       # Cumulative time (in ticks) in various power states
system.cpu.pwrStateResidencyTicks::OFF      906658000                       # Cumulative time (in ticks) in various power states
system.cpu.dtb.walker.pwrStateResidencyTicks::UNDEFINED  50984844000                       # Cumulative time (in ticks) in various power states
system.cpu.interrupts.clk_domain.clock          16000                       # Clock period in ticks
system.cpu.itb.walker.pwrStateResidencyTicks::UNDEFINED  50984844000                       # Cumulative time (in ticks) in various power states

---------- End Simulation Statistics   ----------
