
---------- Begin Simulation Statistics ----------
# Stats desc: Network start
final_tick                                40007219200                       # Number of ticks from beginning of simulation (restored from checkpoints and never reset)
host_inst_rate                              152825661                       # Simulator instruction rate (inst/s)
host_mem_usage                                9872896                       # Number of bytes of host memory used
host_op_rate                                278807087                       # Simulator op (including micro ops) rate (op/s)
host_seconds                                     0.16                       # Real time elapsed on the host
host_tick_rate                               82394365                       # Simulator tick rate (ticks/s)
sim_freq                                 1000000000000                       # Frequency of simulated ticks
sim_insts                                    23903845                       # Number of instructions simulated
sim_ops                                      43625597                       # Number of ops (including micro ops) simulated
sim_seconds                                  0.000013                       # Number of seconds simulated
sim_ticks                                    12893600                       # Number of ticks simulated
system.acc0_datapath.acp_latency::samples            0                       # Histogram of ACP transaction total latency
system.acc0_datapath.acp_latency::mean            nan                       # Histogram of ACP transaction total latency
system.acc0_datapath.acp_latency::gmean           nan                       # Histogram of ACP transaction total latency
system.acc0_datapath.acp_latency::stdev           nan                       # Histogram of ACP transaction total latency
system.acc0_datapath.acp_latency::0                 0                       # Histogram of ACP transaction total latency
system.acc0_datapath.acp_latency::1                 0                       # Histogram of ACP transaction total latency
system.acc0_datapath.acp_latency::2                 0                       # Histogram of ACP transaction total latency
system.acc0_datapath.acp_latency::3                 0                       # Histogram of ACP transaction total latency
system.acc0_datapath.acp_latency::4                 0                       # Histogram of ACP transaction total latency
system.acc0_datapath.acp_latency::5                 0                       # Histogram of ACP transaction total latency
system.acc0_datapath.acp_latency::6                 0                       # Histogram of ACP transaction total latency
system.acc0_datapath.acp_latency::7                 0                       # Histogram of ACP transaction total latency
system.acc0_datapath.acp_latency::8                 0                       # Histogram of ACP transaction total latency
system.acc0_datapath.acp_latency::9                 0                       # Histogram of ACP transaction total latency
system.acc0_datapath.acp_latency::10                0                       # Histogram of ACP transaction total latency
system.acc0_datapath.acp_latency::11                0                       # Histogram of ACP transaction total latency
system.acc0_datapath.acp_latency::12                0                       # Histogram of ACP transaction total latency
system.acc0_datapath.acp_latency::13                0                       # Histogram of ACP transaction total latency
system.acc0_datapath.acp_latency::14                0                       # Histogram of ACP transaction total latency
system.acc0_datapath.acp_latency::15                0                       # Histogram of ACP transaction total latency
system.acc0_datapath.acp_latency::16                0                       # Histogram of ACP transaction total latency
system.acc0_datapath.acp_latency::17                0                       # Histogram of ACP transaction total latency
system.acc0_datapath.acp_latency::18                0                       # Histogram of ACP transaction total latency
system.acc0_datapath.acp_latency::19                0                       # Histogram of ACP transaction total latency
system.acc0_datapath.acp_latency::20                0                       # Histogram of ACP transaction total latency
system.acc0_datapath.acp_latency::21                0                       # Histogram of ACP transaction total latency
system.acc0_datapath.acp_latency::22                0                       # Histogram of ACP transaction total latency
system.acc0_datapath.acp_latency::23                0                       # Histogram of ACP transaction total latency
system.acc0_datapath.acp_latency::24                0                       # Histogram of ACP transaction total latency
system.acc0_datapath.acp_latency::25                0                       # Histogram of ACP transaction total latency
system.acc0_datapath.acp_latency::26                0                       # Histogram of ACP transaction total latency
system.acc0_datapath.acp_latency::27                0                       # Histogram of ACP transaction total latency
system.acc0_datapath.acp_latency::28                0                       # Histogram of ACP transaction total latency
system.acc0_datapath.acp_latency::29                0                       # Histogram of ACP transaction total latency
system.acc0_datapath.acp_latency::total             0                       # Histogram of ACP transaction total latency
system.acc0_datapath.acp_queue_time::samples            0                       # Histogram of time ACP request spent in queue
system.acc0_datapath.acp_queue_time::mean          nan                       # Histogram of time ACP request spent in queue
system.acc0_datapath.acp_queue_time::gmean          nan                       # Histogram of time ACP request spent in queue
system.acc0_datapath.acp_queue_time::stdev          nan                       # Histogram of time ACP request spent in queue
system.acc0_datapath.acp_queue_time::0              0                       # Histogram of time ACP request spent in queue
system.acc0_datapath.acp_queue_time::1              0                       # Histogram of time ACP request spent in queue
system.acc0_datapath.acp_queue_time::2              0                       # Histogram of time ACP request spent in queue
system.acc0_datapath.acp_queue_time::3              0                       # Histogram of time ACP request spent in queue
system.acc0_datapath.acp_queue_time::4              0                       # Histogram of time ACP request spent in queue
system.acc0_datapath.acp_queue_time::5              0                       # Histogram of time ACP request spent in queue
system.acc0_datapath.acp_queue_time::6              0                       # Histogram of time ACP request spent in queue
system.acc0_datapath.acp_queue_time::7              0                       # Histogram of time ACP request spent in queue
system.acc0_datapath.acp_queue_time::8              0                       # Histogram of time ACP request spent in queue
system.acc0_datapath.acp_queue_time::9              0                       # Histogram of time ACP request spent in queue
system.acc0_datapath.acp_queue_time::10             0                       # Histogram of time ACP request spent in queue
system.acc0_datapath.acp_queue_time::11             0                       # Histogram of time ACP request spent in queue
system.acc0_datapath.acp_queue_time::12             0                       # Histogram of time ACP request spent in queue
system.acc0_datapath.acp_queue_time::13             0                       # Histogram of time ACP request spent in queue
system.acc0_datapath.acp_queue_time::14             0                       # Histogram of time ACP request spent in queue
system.acc0_datapath.acp_queue_time::15             0                       # Histogram of time ACP request spent in queue
system.acc0_datapath.acp_queue_time::16             0                       # Histogram of time ACP request spent in queue
system.acc0_datapath.acp_queue_time::17             0                       # Histogram of time ACP request spent in queue
system.acc0_datapath.acp_queue_time::18             0                       # Histogram of time ACP request spent in queue
system.acc0_datapath.acp_queue_time::19             0                       # Histogram of time ACP request spent in queue
system.acc0_datapath.acp_queue_time::20             0                       # Histogram of time ACP request spent in queue
system.acc0_datapath.acp_queue_time::21             0                       # Histogram of time ACP request spent in queue
system.acc0_datapath.acp_queue_time::22             0                       # Histogram of time ACP request spent in queue
system.acc0_datapath.acp_queue_time::23             0                       # Histogram of time ACP request spent in queue
system.acc0_datapath.acp_queue_time::24             0                       # Histogram of time ACP request spent in queue
system.acc0_datapath.acp_queue_time::25             0                       # Histogram of time ACP request spent in queue
system.acc0_datapath.acp_queue_time::26             0                       # Histogram of time ACP request spent in queue
system.acc0_datapath.acp_queue_time::27             0                       # Histogram of time ACP request spent in queue
system.acc0_datapath.acp_queue_time::28             0                       # Histogram of time ACP request spent in queue
system.acc0_datapath.acp_queue_time::29             0                       # Histogram of time ACP request spent in queue
system.acc0_datapath.acp_queue_time::total            0                       # Histogram of time ACP request spent in queue
system.acc0_datapath.cache_queue_reads              0                       # Number of reads to the acc0_datapath.cache_queue
system.acc0_datapath.cache_queue_writes             0                       # Number of writes to the acc0_datapath.cache_queue
system.acc0_datapath.dcache_latency::samples            0                       # Histogram of dcache total access latency
system.acc0_datapath.dcache_latency::mean          nan                       # Histogram of dcache total access latency
system.acc0_datapath.dcache_latency::gmean          nan                       # Histogram of dcache total access latency
system.acc0_datapath.dcache_latency::stdev          nan                       # Histogram of dcache total access latency
system.acc0_datapath.dcache_latency::0              0                       # Histogram of dcache total access latency
system.acc0_datapath.dcache_latency::1              0                       # Histogram of dcache total access latency
system.acc0_datapath.dcache_latency::2              0                       # Histogram of dcache total access latency
system.acc0_datapath.dcache_latency::3              0                       # Histogram of dcache total access latency
system.acc0_datapath.dcache_latency::4              0                       # Histogram of dcache total access latency
system.acc0_datapath.dcache_latency::5              0                       # Histogram of dcache total access latency
system.acc0_datapath.dcache_latency::6              0                       # Histogram of dcache total access latency
system.acc0_datapath.dcache_latency::7              0                       # Histogram of dcache total access latency
system.acc0_datapath.dcache_latency::8              0                       # Histogram of dcache total access latency
system.acc0_datapath.dcache_latency::9              0                       # Histogram of dcache total access latency
system.acc0_datapath.dcache_latency::10             0                       # Histogram of dcache total access latency
system.acc0_datapath.dcache_latency::11             0                       # Histogram of dcache total access latency
system.acc0_datapath.dcache_latency::12             0                       # Histogram of dcache total access latency
system.acc0_datapath.dcache_latency::13             0                       # Histogram of dcache total access latency
system.acc0_datapath.dcache_latency::14             0                       # Histogram of dcache total access latency
system.acc0_datapath.dcache_latency::15             0                       # Histogram of dcache total access latency
system.acc0_datapath.dcache_latency::16             0                       # Histogram of dcache total access latency
system.acc0_datapath.dcache_latency::17             0                       # Histogram of dcache total access latency
system.acc0_datapath.dcache_latency::18             0                       # Histogram of dcache total access latency
system.acc0_datapath.dcache_latency::19             0                       # Histogram of dcache total access latency
system.acc0_datapath.dcache_latency::20             0                       # Histogram of dcache total access latency
system.acc0_datapath.dcache_latency::21             0                       # Histogram of dcache total access latency
system.acc0_datapath.dcache_latency::22             0                       # Histogram of dcache total access latency
system.acc0_datapath.dcache_latency::23             0                       # Histogram of dcache total access latency
system.acc0_datapath.dcache_latency::24             0                       # Histogram of dcache total access latency
system.acc0_datapath.dcache_latency::25             0                       # Histogram of dcache total access latency
system.acc0_datapath.dcache_latency::26             0                       # Histogram of dcache total access latency
system.acc0_datapath.dcache_latency::27             0                       # Histogram of dcache total access latency
system.acc0_datapath.dcache_latency::28             0                       # Histogram of dcache total access latency
system.acc0_datapath.dcache_latency::29             0                       # Histogram of dcache total access latency
system.acc0_datapath.dcache_latency::total            0                       # Histogram of dcache total access latency
system.acc0_datapath.dcache_queue_time::samples            0                       # Histogram of time dcache request spent in queue
system.acc0_datapath.dcache_queue_time::mean          nan                       # Histogram of time dcache request spent in queue
system.acc0_datapath.dcache_queue_time::gmean          nan                       # Histogram of time dcache request spent in queue
system.acc0_datapath.dcache_queue_time::stdev          nan                       # Histogram of time dcache request spent in queue
system.acc0_datapath.dcache_queue_time::0            0                       # Histogram of time dcache request spent in queue
system.acc0_datapath.dcache_queue_time::1            0                       # Histogram of time dcache request spent in queue
system.acc0_datapath.dcache_queue_time::2            0                       # Histogram of time dcache request spent in queue
system.acc0_datapath.dcache_queue_time::3            0                       # Histogram of time dcache request spent in queue
system.acc0_datapath.dcache_queue_time::4            0                       # Histogram of time dcache request spent in queue
system.acc0_datapath.dcache_queue_time::5            0                       # Histogram of time dcache request spent in queue
system.acc0_datapath.dcache_queue_time::6            0                       # Histogram of time dcache request spent in queue
system.acc0_datapath.dcache_queue_time::7            0                       # Histogram of time dcache request spent in queue
system.acc0_datapath.dcache_queue_time::8            0                       # Histogram of time dcache request spent in queue
system.acc0_datapath.dcache_queue_time::9            0                       # Histogram of time dcache request spent in queue
system.acc0_datapath.dcache_queue_time::10            0                       # Histogram of time dcache request spent in queue
system.acc0_datapath.dcache_queue_time::11            0                       # Histogram of time dcache request spent in queue
system.acc0_datapath.dcache_queue_time::12            0                       # Histogram of time dcache request spent in queue
system.acc0_datapath.dcache_queue_time::13            0                       # Histogram of time dcache request spent in queue
system.acc0_datapath.dcache_queue_time::14            0                       # Histogram of time dcache request spent in queue
system.acc0_datapath.dcache_queue_time::15            0                       # Histogram of time dcache request spent in queue
system.acc0_datapath.dcache_queue_time::16            0                       # Histogram of time dcache request spent in queue
system.acc0_datapath.dcache_queue_time::17            0                       # Histogram of time dcache request spent in queue
system.acc0_datapath.dcache_queue_time::18            0                       # Histogram of time dcache request spent in queue
system.acc0_datapath.dcache_queue_time::19            0                       # Histogram of time dcache request spent in queue
system.acc0_datapath.dcache_queue_time::20            0                       # Histogram of time dcache request spent in queue
system.acc0_datapath.dcache_queue_time::21            0                       # Histogram of time dcache request spent in queue
system.acc0_datapath.dcache_queue_time::22            0                       # Histogram of time dcache request spent in queue
system.acc0_datapath.dcache_queue_time::23            0                       # Histogram of time dcache request spent in queue
system.acc0_datapath.dcache_queue_time::24            0                       # Histogram of time dcache request spent in queue
system.acc0_datapath.dcache_queue_time::25            0                       # Histogram of time dcache request spent in queue
system.acc0_datapath.dcache_queue_time::26            0                       # Histogram of time dcache request spent in queue
system.acc0_datapath.dcache_queue_time::27            0                       # Histogram of time dcache request spent in queue
system.acc0_datapath.dcache_queue_time::28            0                       # Histogram of time dcache request spent in queue
system.acc0_datapath.dcache_queue_time::29            0                       # Histogram of time dcache request spent in queue
system.acc0_datapath.dcache_queue_time::total            0                       # Histogram of time dcache request spent in queue
system.acc0_datapath.dma_setup_cycles               0                       # Total number of cycles spent on setting up DMA transfers.
system.acc0_datapath.sim_cycles                     0                       # Total accelerator cycles
system.acc0_datapath.tlb.hits                       0                       # TLB hits
system.acc0_datapath.tlb.misses                     0                       # TLB misses
system.acc0_datapath.tlb.reads                      0                       # TLB reads
system.acc0_datapath.tlb.updates                    0                       # TLB updates
system.acc0_datapath.total_acp_loads                0                       # Total number of ACP loads
system.acc0_datapath.total_acp_stores               0                       # Total number of ACP stores.
system.acc0_datapath.total_dcache_loads             0                       # Total number of dcache loads
system.acc0_datapath.total_dcache_stores            0                       # Total number of dcache stores.
system.cpu.committedInsts                           0                       # Number of instructions committed
system.cpu.committedOps                             0                       # Number of ops (including micro ops) committed
system.cpu.dtb.rdAccesses                           0                       # TLB accesses on read requests
system.cpu.dtb.rdMisses                             0                       # TLB misses on read requests
system.cpu.dtb.wrAccesses                           0                       # TLB accesses on write requests
system.cpu.dtb.wrMisses                             0                       # TLB misses on write requests
system.cpu.idle_fraction                            0                       # Percentage of idle cycles
system.cpu.itb.rdAccesses                           0                       # TLB accesses on read requests
system.cpu.itb.rdMisses                             0                       # TLB misses on read requests
system.cpu.itb.wrAccesses                           0                       # TLB accesses on write requests
system.cpu.itb.wrMisses                             0                       # TLB misses on write requests
system.cpu.not_idle_fraction                        1                       # Percentage of non-idle cycles
system.cpu.numCycles                                0                       # number of cpu cycles simulated
system.cpu.numWorkItemsCompleted                    0                       # number of work items this cpu completed
system.cpu.numWorkItemsStarted                      0                       # number of work items this cpu started
system.cpu.num_busy_cycles                          0                       # Number of busy cycles
system.cpu.num_conditional_control_insts            0                       # number of instructions that are conditional controls
system.cpu.num_fp_alu_accesses                      0                       # Number of float alu accesses
system.cpu.num_fp_insts                             0                       # number of float instructions
system.cpu.num_fp_register_reads                    0                       # number of times the floating registers were read
system.cpu.num_fp_register_writes                   0                       # number of times the floating registers were written
system.cpu.num_func_calls                           0                       # number of times a function call or return occured
system.cpu.num_idle_cycles                          0                       # Number of idle cycles
system.cpu.num_int_alu_accesses                     0                       # Number of integer alu accesses
system.cpu.num_int_insts                            0                       # number of integer instructions
system.cpu.num_int_register_reads                   0                       # number of times the integer registers were read
system.cpu.num_int_register_writes                  0                       # number of times the integer registers were written
system.cpu.num_load_insts                           0                       # Number of load instructions
system.cpu.num_mem_refs                             0                       # number of memory refs
system.cpu.num_store_insts                          0                       # Number of store instructions
system.cpu.num_vec_alu_accesses                     0                       # Number of vector alu accesses
system.cpu.num_vec_insts                            0                       # number of vector instructions
system.cpu.num_vec_register_reads                   0                       # number of times the vector registers were read
system.cpu.num_vec_register_writes                  0                       # number of times the vector registers were written
system.cpu.op_class::No_OpClass                     0                       # Class of executed instruction
system.cpu.op_class::IntAlu                         0                       # Class of executed instruction
system.cpu.op_class::IntMult                        0                       # Class of executed instruction
system.cpu.op_class::IntDiv                         0                       # Class of executed instruction
system.cpu.op_class::FloatAdd                       0                       # Class of executed instruction
system.cpu.op_class::FloatCmp                       0                       # Class of executed instruction
system.cpu.op_class::FloatCvt                       0                       # Class of executed instruction
system.cpu.op_class::FloatMult                      0                       # Class of executed instruction
system.cpu.op_class::FloatMultAcc                   0                       # Class of executed instruction
system.cpu.op_class::FloatDiv                       0                       # Class of executed instruction
system.cpu.op_class::FloatMisc                      0                       # Class of executed instruction
system.cpu.op_class::FloatSqrt                      0                       # Class of executed instruction
system.cpu.op_class::SimdAdd                        0                       # Class of executed instruction
system.cpu.op_class::SimdAddAcc                     0                       # Class of executed instruction
system.cpu.op_class::SimdAlu                        0                       # Class of executed instruction
system.cpu.op_class::SimdCmp                        0                       # Class of executed instruction
system.cpu.op_class::SimdCvt                        0                       # Class of executed instruction
system.cpu.op_class::SimdMisc                       0                       # Class of executed instruction
system.cpu.op_class::SimdMult                       0                       # Class of executed instruction
system.cpu.op_class::SimdMultAcc                    0                       # Class of executed instruction
system.cpu.op_class::SimdShift                      0                       # Class of executed instruction
system.cpu.op_class::SimdShiftAcc                   0                       # Class of executed instruction
system.cpu.op_class::SimdDiv                        0                       # Class of executed instruction
system.cpu.op_class::SimdSqrt                       0                       # Class of executed instruction
system.cpu.op_class::SimdFloatAdd                   0                       # Class of executed instruction
system.cpu.op_class::SimdFloatAlu                   0                       # Class of executed instruction
system.cpu.op_class::SimdFloatCmp                   0                       # Class of executed instruction
system.cpu.op_class::SimdFloatCvt                   0                       # Class of executed instruction
system.cpu.op_class::SimdFloatDiv                   0                       # Class of executed instruction
system.cpu.op_class::SimdFloatMisc                  0                       # Class of executed instruction
system.cpu.op_class::SimdFloatMult                  0                       # Class of executed instruction
system.cpu.op_class::SimdFloatMultAcc               0                       # Class of executed instruction
system.cpu.op_class::SimdFloatSqrt                  0                       # Class of executed instruction
system.cpu.op_class::SimdReduceAdd                  0                       # Class of executed instruction
system.cpu.op_class::SimdReduceAlu                  0                       # Class of executed instruction
system.cpu.op_class::SimdReduceCmp                  0                       # Class of executed instruction
system.cpu.op_class::SimdFloatReduceAdd             0                       # Class of executed instruction
system.cpu.op_class::SimdFloatReduceCmp             0                       # Class of executed instruction
system.cpu.op_class::SimdAes                        0                       # Class of executed instruction
system.cpu.op_class::SimdAesMix                     0                       # Class of executed instruction
system.cpu.op_class::SimdSha1Hash                   0                       # Class of executed instruction
system.cpu.op_class::SimdSha1Hash2                  0                       # Class of executed instruction
system.cpu.op_class::SimdSha256Hash                 0                       # Class of executed instruction
system.cpu.op_class::SimdSha256Hash2                0                       # Class of executed instruction
system.cpu.op_class::SimdShaSigma2                  0                       # Class of executed instruction
system.cpu.op_class::SimdShaSigma3                  0                       # Class of executed instruction
system.cpu.op_class::SimdPredAlu                    0                       # Class of executed instruction
system.cpu.op_class::MemRead                        0                       # Class of executed instruction
system.cpu.op_class::MemWrite                       0                       # Class of executed instruction
system.cpu.op_class::FloatMemRead                   0                       # Class of executed instruction
system.cpu.op_class::FloatMemWrite                  0                       # Class of executed instruction
system.cpu.op_class::IprAccess                      0                       # Class of executed instruction
system.cpu.op_class::InstPrefetch                   0                       # Class of executed instruction
system.cpu.op_class::total                          0                       # Class of executed instruction
system.cpu.workload.numSyscalls                     3                       # Number of system calls
system.ruby.Directory_Controller.Fetch            342      0.00%      0.00%
system.ruby.Directory_Controller.I.Fetch          342      0.00%      0.00%
system.ruby.Directory_Controller.IM.Memory_Data          342      0.00%      0.00%
system.ruby.Directory_Controller.Memory_Data          342      0.00%      0.00%
system.ruby.IFETCH.hit_latency_hist_seqr::bucket_size            1                      
system.ruby.IFETCH.hit_latency_hist_seqr::max_bucket            9                      
system.ruby.IFETCH.hit_latency_hist_seqr::samples         1325                      
system.ruby.IFETCH.hit_latency_hist_seqr |        1325    100.00%    100.00% |           0      0.00%    100.00% |           0      0.00%    100.00% |           0      0.00%    100.00% |           0      0.00%    100.00% |           0      0.00%    100.00% |           0      0.00%    100.00% |           0      0.00%    100.00% |           0      0.00%    100.00% |           0      0.00%    100.00%
system.ruby.IFETCH.hit_latency_hist_seqr::total         1325                      
system.ruby.IFETCH.latency_hist_seqr::bucket_size            1                      
system.ruby.IFETCH.latency_hist_seqr::max_bucket            9                      
system.ruby.IFETCH.latency_hist_seqr::samples         1516                      
system.ruby.IFETCH.latency_hist_seqr     |        1516    100.00%    100.00% |           0      0.00%    100.00% |           0      0.00%    100.00% |           0      0.00%    100.00% |           0      0.00%    100.00% |           0      0.00%    100.00% |           0      0.00%    100.00% |           0      0.00%    100.00% |           0      0.00%    100.00% |           0      0.00%    100.00%
system.ruby.IFETCH.latency_hist_seqr::total         1516                      
system.ruby.IFETCH.miss_latency_hist_seqr::bucket_size            1                      
system.ruby.IFETCH.miss_latency_hist_seqr::max_bucket            9                      
system.ruby.IFETCH.miss_latency_hist_seqr::samples          191                      
system.ruby.IFETCH.miss_latency_hist_seqr |         191    100.00%    100.00% |           0      0.00%    100.00% |           0      0.00%    100.00% |           0      0.00%    100.00% |           0      0.00%    100.00% |           0      0.00%    100.00% |           0      0.00%    100.00% |           0      0.00%    100.00% |           0      0.00%    100.00% |           0      0.00%    100.00%
system.ruby.IFETCH.miss_latency_hist_seqr::total          191                      
system.ruby.L1Cache_Controller.Data_Exclusive |         124    100.00%    100.00% |           0      0.00%    100.00%
system.ruby.L1Cache_Controller.Data_Exclusive::total          124                      
system.ruby.L1Cache_Controller.Data_all_Acks |         225    100.00%    100.00% |           0      0.00%    100.00%
system.ruby.L1Cache_Controller.Data_all_Acks::total          225                      
system.ruby.L1Cache_Controller.E.Load    |         416    100.00%    100.00% |           0      0.00%    100.00%
system.ruby.L1Cache_Controller.E.Load::total          416                      
system.ruby.L1Cache_Controller.E.Store   |          18    100.00%    100.00% |           0      0.00%    100.00%
system.ruby.L1Cache_Controller.E.Store::total           18                      
system.ruby.L1Cache_Controller.IM.Data_all_Acks |          29    100.00%    100.00% |           0      0.00%    100.00%
system.ruby.L1Cache_Controller.IM.Data_all_Acks::total           29                      
system.ruby.L1Cache_Controller.IS.Data_Exclusive |         124    100.00%    100.00% |           0      0.00%    100.00%
system.ruby.L1Cache_Controller.IS.Data_Exclusive::total          124                      
system.ruby.L1Cache_Controller.IS.Data_all_Acks |         196    100.00%    100.00% |           0      0.00%    100.00%
system.ruby.L1Cache_Controller.IS.Data_all_Acks::total          196                      
system.ruby.L1Cache_Controller.Ifetch    |        1516    100.00%    100.00% |           0      0.00%    100.00%
system.ruby.L1Cache_Controller.Ifetch::total         1516                      
system.ruby.L1Cache_Controller.L1_Replacement |           9    100.00%    100.00% |           0      0.00%    100.00%
system.ruby.L1Cache_Controller.L1_Replacement::total            9                      
system.ruby.L1Cache_Controller.Load      |         822    100.00%    100.00% |           0      0.00%    100.00%
system.ruby.L1Cache_Controller.Load::total          822                      
system.ruby.L1Cache_Controller.M.Load    |         273    100.00%    100.00% |           0      0.00%    100.00%
system.ruby.L1Cache_Controller.M.Load::total          273                      
system.ruby.L1Cache_Controller.M.Store   |         370    100.00%    100.00% |           0      0.00%    100.00%
system.ruby.L1Cache_Controller.M.Store::total          370                      
system.ruby.L1Cache_Controller.NP.Ifetch |         191    100.00%    100.00% |           0      0.00%    100.00%
system.ruby.L1Cache_Controller.NP.Ifetch::total          191                      
system.ruby.L1Cache_Controller.NP.Load   |         129    100.00%    100.00% |           0      0.00%    100.00%
system.ruby.L1Cache_Controller.NP.Load::total          129                      
system.ruby.L1Cache_Controller.NP.Store  |          29    100.00%    100.00% |           0      0.00%    100.00%
system.ruby.L1Cache_Controller.NP.Store::total           29                      
system.ruby.L1Cache_Controller.S.Ifetch  |        1325    100.00%    100.00% |           0      0.00%    100.00%
system.ruby.L1Cache_Controller.S.Ifetch::total         1325                      
system.ruby.L1Cache_Controller.S.L1_Replacement |           9    100.00%    100.00% |           0      0.00%    100.00%
system.ruby.L1Cache_Controller.S.L1_Replacement::total            9                      
system.ruby.L1Cache_Controller.S.Load    |           4    100.00%    100.00% |           0      0.00%    100.00%
system.ruby.L1Cache_Controller.S.Load::total            4                      
system.ruby.L1Cache_Controller.Store     |         417    100.00%    100.00% |           0      0.00%    100.00%
system.ruby.L1Cache_Controller.Store::total          417                      
system.ruby.L2Cache_Controller.Exclusive_Unblock          153      0.00%      0.00%
system.ruby.L2Cache_Controller.IM.Mem_Data           29      0.00%      0.00%
system.ruby.L2Cache_Controller.IS.Mem_Data          189      0.00%      0.00%
system.ruby.L2Cache_Controller.ISS.Mem_Data          124      0.00%      0.00%
system.ruby.L2Cache_Controller.L1_GETS            129      0.00%      0.00%
system.ruby.L2Cache_Controller.L1_GETX             29      0.00%      0.00%
system.ruby.L2Cache_Controller.L1_GET_INSTR          191      0.00%      0.00%
system.ruby.L2Cache_Controller.MT_MB.Exclusive_Unblock          153      0.00%      0.00%
system.ruby.L2Cache_Controller.Mem_Data           342      0.00%      0.00%
system.ruby.L2Cache_Controller.NP.L1_GETS          124      0.00%      0.00%
system.ruby.L2Cache_Controller.NP.L1_GETX           29      0.00%      0.00%
system.ruby.L2Cache_Controller.NP.L1_GET_INSTR          189      0.00%      0.00%
system.ruby.L2Cache_Controller.SS.L1_GETS            5      0.00%      0.00%
system.ruby.L2Cache_Controller.SS.L1_GET_INSTR            2      0.00%      0.00%
system.ruby.LD.hit_latency_hist_seqr::bucket_size            1                      
system.ruby.LD.hit_latency_hist_seqr::max_bucket            9                      
system.ruby.LD.hit_latency_hist_seqr::samples          693                      
system.ruby.LD.hit_latency_hist_seqr     |         693    100.00%    100.00% |           0      0.00%    100.00% |           0      0.00%    100.00% |           0      0.00%    100.00% |           0      0.00%    100.00% |           0      0.00%    100.00% |           0      0.00%    100.00% |           0      0.00%    100.00% |           0      0.00%    100.00% |           0      0.00%    100.00%
system.ruby.LD.hit_latency_hist_seqr::total          693                      
system.ruby.LD.latency_hist_seqr::bucket_size            1                      
system.ruby.LD.latency_hist_seqr::max_bucket            9                      
system.ruby.LD.latency_hist_seqr::samples          822                      
system.ruby.LD.latency_hist_seqr         |         822    100.00%    100.00% |           0      0.00%    100.00% |           0      0.00%    100.00% |           0      0.00%    100.00% |           0      0.00%    100.00% |           0      0.00%    100.00% |           0      0.00%    100.00% |           0      0.00%    100.00% |           0      0.00%    100.00% |           0      0.00%    100.00%
system.ruby.LD.latency_hist_seqr::total           822                      
system.ruby.LD.miss_latency_hist_seqr::bucket_size            1                      
system.ruby.LD.miss_latency_hist_seqr::max_bucket            9                      
system.ruby.LD.miss_latency_hist_seqr::samples          129                      
system.ruby.LD.miss_latency_hist_seqr    |         129    100.00%    100.00% |           0      0.00%    100.00% |           0      0.00%    100.00% |           0      0.00%    100.00% |           0      0.00%    100.00% |           0      0.00%    100.00% |           0      0.00%    100.00% |           0      0.00%    100.00% |           0      0.00%    100.00% |           0      0.00%    100.00%
system.ruby.LD.miss_latency_hist_seqr::total          129                      
system.ruby.RMW_Read.hit_latency_hist_seqr::bucket_size            1                      
system.ruby.RMW_Read.hit_latency_hist_seqr::max_bucket            9                      
system.ruby.RMW_Read.hit_latency_hist_seqr::samples           37                      
system.ruby.RMW_Read.hit_latency_hist_seqr |          37    100.00%    100.00% |           0      0.00%    100.00% |           0      0.00%    100.00% |           0      0.00%    100.00% |           0      0.00%    100.00% |           0      0.00%    100.00% |           0      0.00%    100.00% |           0      0.00%    100.00% |           0      0.00%    100.00% |           0      0.00%    100.00%
system.ruby.RMW_Read.hit_latency_hist_seqr::total           37                      
system.ruby.RMW_Read.latency_hist_seqr::bucket_size            1                      
system.ruby.RMW_Read.latency_hist_seqr::max_bucket            9                      
system.ruby.RMW_Read.latency_hist_seqr::samples           40                      
system.ruby.RMW_Read.latency_hist_seqr   |          40    100.00%    100.00% |           0      0.00%    100.00% |           0      0.00%    100.00% |           0      0.00%    100.00% |           0      0.00%    100.00% |           0      0.00%    100.00% |           0      0.00%    100.00% |           0      0.00%    100.00% |           0      0.00%    100.00% |           0      0.00%    100.00%
system.ruby.RMW_Read.latency_hist_seqr::total           40                      
system.ruby.RMW_Read.miss_latency_hist_seqr::bucket_size            1                      
system.ruby.RMW_Read.miss_latency_hist_seqr::max_bucket            9                      
system.ruby.RMW_Read.miss_latency_hist_seqr::samples            3                      
system.ruby.RMW_Read.miss_latency_hist_seqr |           3    100.00%    100.00% |           0      0.00%    100.00% |           0      0.00%    100.00% |           0      0.00%    100.00% |           0      0.00%    100.00% |           0      0.00%    100.00% |           0      0.00%    100.00% |           0      0.00%    100.00% |           0      0.00%    100.00% |           0      0.00%    100.00%
system.ruby.RMW_Read.miss_latency_hist_seqr::total            3                      
system.ruby.ST.hit_latency_hist_seqr::bucket_size            1                      
system.ruby.ST.hit_latency_hist_seqr::max_bucket            9                      
system.ruby.ST.hit_latency_hist_seqr::samples          351                      
system.ruby.ST.hit_latency_hist_seqr     |         351    100.00%    100.00% |           0      0.00%    100.00% |           0      0.00%    100.00% |           0      0.00%    100.00% |           0      0.00%    100.00% |           0      0.00%    100.00% |           0      0.00%    100.00% |           0      0.00%    100.00% |           0      0.00%    100.00% |           0      0.00%    100.00%
system.ruby.ST.hit_latency_hist_seqr::total          351                      
system.ruby.ST.latency_hist_seqr::bucket_size            1                      
system.ruby.ST.latency_hist_seqr::max_bucket            9                      
system.ruby.ST.latency_hist_seqr::samples          377                      
system.ruby.ST.latency_hist_seqr         |         377    100.00%    100.00% |           0      0.00%    100.00% |           0      0.00%    100.00% |           0      0.00%    100.00% |           0      0.00%    100.00% |           0      0.00%    100.00% |           0      0.00%    100.00% |           0      0.00%    100.00% |           0      0.00%    100.00% |           0      0.00%    100.00%
system.ruby.ST.latency_hist_seqr::total           377                      
system.ruby.ST.miss_latency_hist_seqr::bucket_size            1                      
system.ruby.ST.miss_latency_hist_seqr::max_bucket            9                      
system.ruby.ST.miss_latency_hist_seqr::samples           26                      
system.ruby.ST.miss_latency_hist_seqr    |          26    100.00%    100.00% |           0      0.00%    100.00% |           0      0.00%    100.00% |           0      0.00%    100.00% |           0      0.00%    100.00% |           0      0.00%    100.00% |           0      0.00%    100.00% |           0      0.00%    100.00% |           0      0.00%    100.00% |           0      0.00%    100.00%
system.ruby.ST.miss_latency_hist_seqr::total           26                      
system.ruby.acp_cntrl_acc0.sequencer.dcache.demand_accesses            0                       # Number of cache demand accesses
system.ruby.acp_cntrl_acc0.sequencer.dcache.demand_hits            0                       # Number of cache demand hits
system.ruby.acp_cntrl_acc0.sequencer.dcache.demand_misses            0                       # Number of cache demand misses
system.ruby.acp_cntrl_acc0.sequencer.dcache.read_accesses            0                       # Number of cache read accesses
system.ruby.acp_cntrl_acc0.sequencer.dcache.read_hits            0                       # Number of cache read hits
system.ruby.acp_cntrl_acc0.sequencer.dcache.read_misses            0                       # Number of cache read misses
system.ruby.acp_cntrl_acc0.sequencer.dcache.write_accesses            0                       # Number of cache write accesses
system.ruby.acp_cntrl_acc0.sequencer.dcache.write_hits            0                       # Number of cache write hits
system.ruby.acp_cntrl_acc0.sequencer.dcache.write_misses            0                       # Number of cache write misses
system.ruby.acp_cntrl_acc0.sequencer.icache.demand_accesses            0                       # Number of cache demand accesses
system.ruby.acp_cntrl_acc0.sequencer.icache.demand_hits            0                       # Number of cache demand hits
system.ruby.acp_cntrl_acc0.sequencer.icache.demand_misses            0                       # Number of cache demand misses
system.ruby.acp_cntrl_acc0.sequencer.icache.read_accesses            0                       # Number of cache read accesses
system.ruby.acp_cntrl_acc0.sequencer.icache.read_hits            0                       # Number of cache read hits
system.ruby.acp_cntrl_acc0.sequencer.icache.read_misses            0                       # Number of cache read misses
system.ruby.acp_cntrl_acc0.sequencer.icache.write_accesses            0                       # Number of cache write accesses
system.ruby.acp_cntrl_acc0.sequencer.icache.write_hits            0                       # Number of cache write hits
system.ruby.acp_cntrl_acc0.sequencer.icache.write_misses            0                       # Number of cache write misses
system.ruby.delayHist::bucket_size                  1                       # delay histogram for all message
system.ruby.delayHist::max_bucket                   9                       # delay histogram for all message
system.ruby.delayHist::samples                   1193                       # delay histogram for all message
system.ruby.delayHist::mean                  0.003353                       # delay histogram for all message
system.ruby.delayHist::stdev                 0.115808                       # delay histogram for all message
system.ruby.delayHist                    |        1192     99.92%     99.92% |           0      0.00%     99.92% |           0      0.00%     99.92% |           0      0.00%     99.92% |           1      0.08%    100.00% |           0      0.00%    100.00% |           0      0.00%    100.00% |           0      0.00%    100.00% |           0      0.00%    100.00% |           0      0.00%    100.00% # delay histogram for all message
system.ruby.delayHist::total                     1193                       # delay histogram for all message
system.ruby.delayVCHist.vnet_0::bucket_size            1                       # delay histogram for vnet_0
system.ruby.delayVCHist.vnet_0::max_bucket            9                       # delay histogram for vnet_0
system.ruby.delayVCHist.vnet_0::samples           502                       # delay histogram for vnet_0
system.ruby.delayVCHist.vnet_0           |         502    100.00%    100.00% |           0      0.00%    100.00% |           0      0.00%    100.00% |           0      0.00%    100.00% |           0      0.00%    100.00% |           0      0.00%    100.00% |           0      0.00%    100.00% |           0      0.00%    100.00% |           0      0.00%    100.00% |           0      0.00%    100.00% # delay histogram for vnet_0
system.ruby.delayVCHist.vnet_0::total             502                       # delay histogram for vnet_0
system.ruby.delayVCHist.vnet_1::bucket_size            1                       # delay histogram for vnet_1
system.ruby.delayVCHist.vnet_1::max_bucket            9                       # delay histogram for vnet_1
system.ruby.delayVCHist.vnet_1::samples           691                       # delay histogram for vnet_1
system.ruby.delayVCHist.vnet_1::mean         0.005789                       # delay histogram for vnet_1
system.ruby.delayVCHist.vnet_1::stdev        0.152167                       # delay histogram for vnet_1
system.ruby.delayVCHist.vnet_1           |         690     99.86%     99.86% |           0      0.00%     99.86% |           0      0.00%     99.86% |           0      0.00%     99.86% |           1      0.14%    100.00% |           0      0.00%    100.00% |           0      0.00%    100.00% |           0      0.00%    100.00% |           0      0.00%    100.00% |           0      0.00%    100.00% # delay histogram for vnet_1
system.ruby.delayVCHist.vnet_1::total             691                       # delay histogram for vnet_1
system.ruby.dir_cntrl0.requestToDir.avg_buf_msgs     0.013262                       # Average number of messages in buffer
system.ruby.dir_cntrl0.requestToDir.avg_stall_time  4021.107369                       # Average number of cycles messages are stalled in this MB
system.ruby.dir_cntrl0.responseFromDir.avg_buf_msgs     0.013262                       # Average number of messages in buffer
system.ruby.dir_cntrl0.responseFromDir.avg_stall_time   496.901564                       # Average number of cycles messages are stalled in this MB
system.ruby.dir_cntrl0.responseFromMemory.avg_buf_msgs     0.014271                       # Average number of messages in buffer
system.ruby.dir_cntrl0.responseFromMemory.avg_stall_time   496.920953                       # Average number of cycles messages are stalled in this MB
system.ruby.hit_latency_hist_seqr::bucket_size            1                      
system.ruby.hit_latency_hist_seqr::max_bucket            9                      
system.ruby.hit_latency_hist_seqr::samples         2406                      
system.ruby.hit_latency_hist_seqr        |        2406    100.00%    100.00% |           0      0.00%    100.00% |           0      0.00%    100.00% |           0      0.00%    100.00% |           0      0.00%    100.00% |           0      0.00%    100.00% |           0      0.00%    100.00% |           0      0.00%    100.00% |           0      0.00%    100.00% |           0      0.00%    100.00%
system.ruby.hit_latency_hist_seqr::total         2406                      
system.ruby.l1_cntrl0.L1Dcache.demand_accesses         1239                       # Number of cache demand accesses
system.ruby.l1_cntrl0.L1Dcache.demand_hits         1081                       # Number of cache demand hits
system.ruby.l1_cntrl0.L1Dcache.demand_misses          158                       # Number of cache demand misses
system.ruby.l1_cntrl0.L1Dcache.read_accesses            0                       # Number of cache read accesses
system.ruby.l1_cntrl0.L1Dcache.read_hits            0                       # Number of cache read hits
system.ruby.l1_cntrl0.L1Dcache.read_misses            0                       # Number of cache read misses
system.ruby.l1_cntrl0.L1Dcache.write_accesses            0                       # Number of cache write accesses
system.ruby.l1_cntrl0.L1Dcache.write_hits            0                       # Number of cache write hits
system.ruby.l1_cntrl0.L1Dcache.write_misses            0                       # Number of cache write misses
system.ruby.l1_cntrl0.L1Icache.demand_accesses         1516                       # Number of cache demand accesses
system.ruby.l1_cntrl0.L1Icache.demand_hits         1325                       # Number of cache demand hits
system.ruby.l1_cntrl0.L1Icache.demand_misses          191                       # Number of cache demand misses
system.ruby.l1_cntrl0.L1Icache.read_accesses            0                       # Number of cache read accesses
system.ruby.l1_cntrl0.L1Icache.read_hits            0                       # Number of cache read hits
system.ruby.l1_cntrl0.L1Icache.read_misses            0                       # Number of cache read misses
system.ruby.l1_cntrl0.L1Icache.write_accesses            0                       # Number of cache write accesses
system.ruby.l1_cntrl0.L1Icache.write_hits            0                       # Number of cache write hits
system.ruby.l1_cntrl0.L1Icache.write_misses            0                       # Number of cache write misses
system.ruby.l1_cntrl0.fully_busy_cycles             9                       # cycles for which number of transistions == max transitions
system.ruby.l1_cntrl0.mandatoryQueue.avg_buf_msgs     0.151951                       # Average number of messages in buffer
system.ruby.l1_cntrl0.mandatoryQueue.avg_stall_time   499.945710                       # Average number of cycles messages are stalled in this MB
system.ruby.l1_cntrl0.prefetcher.allocated_streams            0                       # number of streams allocated for prefetching
system.ruby.l1_cntrl0.prefetcher.dropped_prefetches            0                       # number of prefetch requests dropped
system.ruby.l1_cntrl0.prefetcher.hits               0                       # number of prefetched blocks accessed
system.ruby.l1_cntrl0.prefetcher.miss_observed            0                       # number of misses observed
system.ruby.l1_cntrl0.prefetcher.misses_on_prefetched_blocks            0                       # number of misses for blocks that were prefetched, yet missed
system.ruby.l1_cntrl0.prefetcher.pages_crossed            0                       # number of prefetches across pages
system.ruby.l1_cntrl0.prefetcher.partial_hits            0                       # number of misses observed for a block being prefetched
system.ruby.l1_cntrl0.prefetcher.prefetches_accepted            0                       # number of prefetch requests accepted
system.ruby.l1_cntrl0.prefetcher.prefetches_requested            0                       # number of prefetch requests made
system.ruby.l1_cntrl0.requestFromL1Cache.avg_buf_msgs     0.027068                       # Average number of messages in buffer
system.ruby.l1_cntrl0.requestFromL1Cache.avg_stall_time   999.813861                       # Average number of cycles messages are stalled in this MB
system.ruby.l1_cntrl0.responseToL1Cache.avg_buf_msgs     0.013534                       # Average number of messages in buffer
system.ruby.l1_cntrl0.responseToL1Cache.avg_stall_time  3482.789913                       # Average number of cycles messages are stalled in this MB
system.ruby.l1_cntrl0.unblockFromL1Cache.avg_buf_msgs     0.005933                       # Average number of messages in buffer
system.ruby.l1_cntrl0.unblockFromL1Cache.avg_stall_time   493.353292                       # Average number of cycles messages are stalled in this MB
system.ruby.l1_cntrl_acc0.L1Dcache.demand_accesses            0                       # Number of cache demand accesses
system.ruby.l1_cntrl_acc0.L1Dcache.demand_hits            0                       # Number of cache demand hits
system.ruby.l1_cntrl_acc0.L1Dcache.demand_misses            0                       # Number of cache demand misses
system.ruby.l1_cntrl_acc0.L1Dcache.read_accesses            0                       # Number of cache read accesses
system.ruby.l1_cntrl_acc0.L1Dcache.read_hits            0                       # Number of cache read hits
system.ruby.l1_cntrl_acc0.L1Dcache.read_misses            0                       # Number of cache read misses
system.ruby.l1_cntrl_acc0.L1Dcache.write_accesses            0                       # Number of cache write accesses
system.ruby.l1_cntrl_acc0.L1Dcache.write_hits            0                       # Number of cache write hits
system.ruby.l1_cntrl_acc0.L1Dcache.write_misses            0                       # Number of cache write misses
system.ruby.l1_cntrl_acc0.L1Icache.demand_accesses            0                       # Number of cache demand accesses
system.ruby.l1_cntrl_acc0.L1Icache.demand_hits            0                       # Number of cache demand hits
system.ruby.l1_cntrl_acc0.L1Icache.demand_misses            0                       # Number of cache demand misses
system.ruby.l1_cntrl_acc0.L1Icache.read_accesses            0                       # Number of cache read accesses
system.ruby.l1_cntrl_acc0.L1Icache.read_hits            0                       # Number of cache read hits
system.ruby.l1_cntrl_acc0.L1Icache.read_misses            0                       # Number of cache read misses
system.ruby.l1_cntrl_acc0.L1Icache.write_accesses            0                       # Number of cache write accesses
system.ruby.l1_cntrl_acc0.L1Icache.write_hits            0                       # Number of cache write hits
system.ruby.l1_cntrl_acc0.L1Icache.write_misses            0                       # Number of cache write misses
system.ruby.l1_cntrl_acc0.prefetcher.allocated_streams            0                       # number of streams allocated for prefetching
system.ruby.l1_cntrl_acc0.prefetcher.dropped_prefetches            0                       # number of prefetch requests dropped
system.ruby.l1_cntrl_acc0.prefetcher.hits            0                       # number of prefetched blocks accessed
system.ruby.l1_cntrl_acc0.prefetcher.miss_observed            0                       # number of misses observed
system.ruby.l1_cntrl_acc0.prefetcher.misses_on_prefetched_blocks            0                       # number of misses for blocks that were prefetched, yet missed
system.ruby.l1_cntrl_acc0.prefetcher.pages_crossed            0                       # number of prefetches across pages
system.ruby.l1_cntrl_acc0.prefetcher.partial_hits            0                       # number of misses observed for a block being prefetched
system.ruby.l1_cntrl_acc0.prefetcher.prefetches_accepted            0                       # number of prefetch requests accepted
system.ruby.l1_cntrl_acc0.prefetcher.prefetches_requested            0                       # number of prefetch requests made
system.ruby.l2_cntrl0.DirRequestFromL2Cache.avg_buf_msgs     0.026525                       # Average number of messages in buffer
system.ruby.l2_cntrl0.DirRequestFromL2Cache.avg_stall_time   999.503630                       # Average number of cycles messages are stalled in this MB
system.ruby.l2_cntrl0.L1RequestToL2Cache.avg_buf_msgs     0.013534                       # Average number of messages in buffer
system.ruby.l2_cntrl0.L1RequestToL2Cache.avg_stall_time  3998.324750                       # Average number of cycles messages are stalled in this MB
system.ruby.l2_cntrl0.L2cache.demand_accesses          349                       # Number of cache demand accesses
system.ruby.l2_cntrl0.L2cache.demand_hits            7                       # Number of cache demand hits
system.ruby.l2_cntrl0.L2cache.demand_misses          342                       # Number of cache demand misses
system.ruby.l2_cntrl0.L2cache.read_accesses          349                       # Number of cache read accesses
system.ruby.l2_cntrl0.L2cache.read_hits             7                       # Number of cache read hits
system.ruby.l2_cntrl0.L2cache.read_misses          342                       # Number of cache read misses
system.ruby.l2_cntrl0.L2cache.write_accesses            0                       # Number of cache write accesses
system.ruby.l2_cntrl0.L2cache.write_hits            0                       # Number of cache write hits
system.ruby.l2_cntrl0.L2cache.write_misses            0                       # Number of cache write misses
system.ruby.l2_cntrl0.responseFromL2Cache.avg_buf_msgs     0.013805                       # Average number of messages in buffer
system.ruby.l2_cntrl0.responseFromL2Cache.avg_stall_time   501.031519                       # Average number of cycles messages are stalled in this MB
system.ruby.l2_cntrl0.responseToL2Cache.avg_buf_msgs     0.013262                       # Average number of messages in buffer
system.ruby.l2_cntrl0.responseToL2Cache.avg_stall_time  3477.496589                       # Average number of cycles messages are stalled in this MB
system.ruby.l2_cntrl0.unblockToL2Cache.avg_buf_msgs     0.005933                       # Average number of messages in buffer
system.ruby.l2_cntrl0.unblockToL2Cache.avg_stall_time  3452.658687                       # Average number of cycles messages are stalled in this MB
system.ruby.latency_hist_seqr::bucket_size            1                      
system.ruby.latency_hist_seqr::max_bucket            9                      
system.ruby.latency_hist_seqr::samples           2755                      
system.ruby.latency_hist_seqr            |        2755    100.00%    100.00% |           0      0.00%    100.00% |           0      0.00%    100.00% |           0      0.00%    100.00% |           0      0.00%    100.00% |           0      0.00%    100.00% |           0      0.00%    100.00% |           0      0.00%    100.00% |           0      0.00%    100.00% |           0      0.00%    100.00%
system.ruby.latency_hist_seqr::total             2755                      
system.ruby.miss_latency_hist_seqr::bucket_size            1                      
system.ruby.miss_latency_hist_seqr::max_bucket            9                      
system.ruby.miss_latency_hist_seqr::samples          349                      
system.ruby.miss_latency_hist_seqr       |         349    100.00%    100.00% |           0      0.00%    100.00% |           0      0.00%    100.00% |           0      0.00%    100.00% |           0      0.00%    100.00% |           0      0.00%    100.00% |           0      0.00%    100.00% |           0      0.00%    100.00% |           0      0.00%    100.00% |           0      0.00%    100.00%
system.ruby.miss_latency_hist_seqr::total          349                      
system.ruby.network.int_link_buffers00.avg_buf_msgs     0.013534                       # Average number of messages in buffer
system.ruby.network.int_link_buffers00.avg_stall_time  1999.472607                       # Average number of cycles messages are stalled in this MB
system.ruby.network.int_link_buffers02.avg_buf_msgs     0.005933                       # Average number of messages in buffer
system.ruby.network.int_link_buffers02.avg_stall_time  1479.943539                       # Average number of cycles messages are stalled in this MB
system.ruby.network.int_link_buffers03.avg_buf_msgs     0.013262                       # Average number of messages in buffer
system.ruby.network.int_link_buffers03.avg_stall_time  2022.875688                       # Average number of cycles messages are stalled in this MB
system.ruby.network.int_link_buffers04.avg_buf_msgs     0.013534                       # Average number of messages in buffer
system.ruby.network.int_link_buffers04.avg_stall_time  1496.424583                       # Average number of cycles messages are stalled in this MB
system.ruby.network.int_link_buffers07.avg_buf_msgs     0.013262                       # Average number of messages in buffer
system.ruby.network.int_link_buffers07.avg_stall_time  1490.588355                       # Average number of cycles messages are stalled in this MB
system.ruby.network.int_link_buffers19.avg_buf_msgs     0.013534                       # Average number of messages in buffer
system.ruby.network.int_link_buffers19.avg_stall_time  2489.684806                       # Average number of cycles messages are stalled in this MB
system.ruby.network.int_link_buffers21.avg_buf_msgs     0.013534                       # Average number of messages in buffer
system.ruby.network.int_link_buffers21.avg_stall_time  2998.976236                       # Average number of cycles messages are stalled in this MB
system.ruby.network.int_link_buffers22.avg_buf_msgs     0.013262                       # Average number of messages in buffer
system.ruby.network.int_link_buffers22.avg_stall_time  2484.120030                       # Average number of cycles messages are stalled in this MB
system.ruby.network.int_link_buffers23.avg_buf_msgs     0.005933                       # Average number of messages in buffer
system.ruby.network.int_link_buffers23.avg_stall_time  2466.378671                       # Average number of cycles messages are stalled in this MB
system.ruby.network.int_link_buffers24.avg_buf_msgs     0.013262                       # Average number of messages in buffer
system.ruby.network.int_link_buffers24.avg_stall_time  3022.069087                       # Average number of cycles messages are stalled in this MB
system.ruby.network.msg_byte.Control            16584                      
system.ruby.network.msg_byte.Response_Control         3672                      
system.ruby.network.msg_byte.Response_Data        82920                      
system.ruby.network.msg_count.Control            2073                      
system.ruby.network.msg_count.Response_Control          459                      
system.ruby.network.msg_count.Response_Data         2073                      
system.ruby.network.routers0.msg_bytes.Control::0         2792                      
system.ruby.network.routers0.msg_bytes.Response_Control::2         1224                      
system.ruby.network.routers0.msg_bytes.Response_Data::1        13960                      
system.ruby.network.routers0.msg_count.Control::0          349                      
system.ruby.network.routers0.msg_count.Response_Control::2          153                      
system.ruby.network.routers0.msg_count.Response_Data::1          349                      
system.ruby.network.routers0.percent_links_utilized     2.178423                      
system.ruby.network.routers0.port_buffers01.avg_buf_msgs     0.013534                       # Average number of messages in buffer
system.ruby.network.routers0.port_buffers01.avg_stall_time  2986.256749                       # Average number of cycles messages are stalled in this MB
system.ruby.network.routers0.port_buffers03.avg_buf_msgs     0.013534                       # Average number of messages in buffer
system.ruby.network.routers0.port_buffers03.avg_stall_time  1499.662623                       # Average number of cycles messages are stalled in this MB
system.ruby.network.routers0.port_buffers05.avg_buf_msgs     0.005933                       # Average number of messages in buffer
system.ruby.network.routers0.port_buffers05.avg_stall_time   986.667805                       # Average number of cycles messages are stalled in this MB
system.ruby.network.routers0.throttle0.link_utilization     3.383488                      
system.ruby.network.routers0.throttle0.msg_bytes.Response_Data::1        13960                      
system.ruby.network.routers0.throttle0.msg_count.Response_Data::1          349                      
system.ruby.network.routers0.throttle1.link_utilization     0.973359                      
system.ruby.network.routers0.throttle1.msg_bytes.Control::0         2792                      
system.ruby.network.routers0.throttle1.msg_bytes.Response_Control::2         1224                      
system.ruby.network.routers0.throttle1.msg_count.Control::0          349                      
system.ruby.network.routers0.throttle1.msg_count.Response_Control::2          153                      
system.ruby.network.routers1.msg_bytes.Control::0         5528                      
system.ruby.network.routers1.msg_bytes.Response_Control::2         1224                      
system.ruby.network.routers1.msg_bytes.Response_Data::1        27640                      
system.ruby.network.routers1.msg_count.Control::0          691                      
system.ruby.network.routers1.msg_count.Response_Control::2          153                      
system.ruby.network.routers1.msg_count.Response_Data::1          691                      
system.ruby.network.routers1.percent_links_utilized     4.167798                      
system.ruby.network.routers1.port_buffers00.avg_buf_msgs     0.013534                       # Average number of messages in buffer
system.ruby.network.routers1.port_buffers00.avg_stall_time  3498.669883                       # Average number of cycles messages are stalled in this MB
system.ruby.network.routers1.port_buffers01.avg_buf_msgs     0.013262                       # Average number of messages in buffer
system.ruby.network.routers1.port_buffers01.avg_stall_time  2980.827699                       # Average number of cycles messages are stalled in this MB
system.ruby.network.routers1.port_buffers02.avg_buf_msgs     0.005933                       # Average number of messages in buffer
system.ruby.network.routers1.port_buffers02.avg_stall_time  2959.538069                       # Average number of cycles messages are stalled in this MB
system.ruby.network.routers1.port_buffers03.avg_buf_msgs     0.013573                       # Average number of messages in buffer
system.ruby.network.routers1.port_buffers03.avg_stall_time  1523.220821                       # Average number of cycles messages are stalled in this MB
system.ruby.network.routers1.port_buffers04.avg_buf_msgs     0.013611                       # Average number of messages in buffer
system.ruby.network.routers1.port_buffers04.avg_stall_time   999.736303                       # Average number of cycles messages are stalled in this MB
system.ruby.network.routers1.throttle0.link_utilization     4.288983                      
system.ruby.network.routers1.throttle0.msg_bytes.Control::0         2792                      
system.ruby.network.routers1.throttle0.msg_bytes.Response_Control::2         1224                      
system.ruby.network.routers1.throttle0.msg_bytes.Response_Data::1        13680                      
system.ruby.network.routers1.throttle0.msg_count.Control::0          349                      
system.ruby.network.routers1.throttle0.msg_count.Response_Control::2          153                      
system.ruby.network.routers1.throttle0.msg_count.Response_Data::1          342                      
system.ruby.network.routers1.throttle1.link_utilization     4.046613                      
system.ruby.network.routers1.throttle1.msg_bytes.Control::0         2736                      
system.ruby.network.routers1.throttle1.msg_bytes.Response_Data::1        13960                      
system.ruby.network.routers1.throttle1.msg_count.Control::0          342                      
system.ruby.network.routers1.throttle1.msg_count.Response_Data::1          349                      
system.ruby.network.routers2.msg_bytes.Control::0         2736                      
system.ruby.network.routers2.msg_bytes.Response_Data::1        13680                      
system.ruby.network.routers2.msg_count.Control::0          342                      
system.ruby.network.routers2.msg_count.Response_Data::1          342                      
system.ruby.network.routers2.percent_links_utilized     1.989374                      
system.ruby.network.routers2.port_buffers00.avg_buf_msgs     0.013262                       # Average number of messages in buffer
system.ruby.network.routers2.port_buffers00.avg_stall_time  3521.607618                       # Average number of cycles messages are stalled in this MB
system.ruby.network.routers2.port_buffers03.avg_buf_msgs     0.013262                       # Average number of messages in buffer
system.ruby.network.routers2.port_buffers03.avg_stall_time   993.764349                       # Average number of cycles messages are stalled in this MB
system.ruby.network.routers2.throttle0.link_utilization     0.663125                      
system.ruby.network.routers2.throttle0.msg_bytes.Control::0         2736                      
system.ruby.network.routers2.throttle0.msg_count.Control::0          342                      
system.ruby.network.routers2.throttle1.link_utilization     3.315624                      
system.ruby.network.routers2.throttle1.msg_bytes.Response_Data::1        13680                      
system.ruby.network.routers2.throttle1.msg_count.Response_Data::1          342                      
system.ruby.network.routers3.percent_links_utilized            0                      
system.ruby.network.routers3.throttle0.link_utilization            0                      
system.ruby.network.routers3.throttle1.link_utilization            0                      
system.ruby.network.routers4.percent_links_utilized            0                      
system.ruby.network.routers4.throttle0.link_utilization            0                      
system.ruby.network.routers4.throttle1.link_utilization            0                      
system.ruby.network.routers5.percent_links_utilized            0                      
system.ruby.network.routers5.throttle0.link_utilization            0                      
system.ruby.network.routers5.throttle1.link_utilization            0                      
system.ruby.network.routers6.msg_bytes.Control::0         5528                      
system.ruby.network.routers6.msg_bytes.Response_Control::2         1224                      
system.ruby.network.routers6.msg_bytes.Response_Data::1        27640                      
system.ruby.network.routers6.msg_count.Control::0          691                      
system.ruby.network.routers6.msg_count.Response_Control::2          153                      
system.ruby.network.routers6.msg_count.Response_Data::1          691                      
system.ruby.network.routers6.percent_links_utilized     1.389266                      
system.ruby.network.routers6.port_buffers01.avg_buf_msgs     0.013534                       # Average number of messages in buffer
system.ruby.network.routers6.port_buffers01.avg_stall_time  1993.074084                       # Average number of cycles messages are stalled in this MB
system.ruby.network.routers6.port_buffers03.avg_buf_msgs     0.013534                       # Average number of messages in buffer
system.ruby.network.routers6.port_buffers03.avg_stall_time  2499.243811                       # Average number of cycles messages are stalled in this MB
system.ruby.network.routers6.port_buffers04.avg_buf_msgs     0.013262                       # Average number of messages in buffer
system.ruby.network.routers6.port_buffers04.avg_stall_time  1987.373582                       # Average number of cycles messages are stalled in this MB
system.ruby.network.routers6.port_buffers05.avg_buf_msgs     0.005933                       # Average number of messages in buffer
system.ruby.network.routers6.port_buffers05.avg_stall_time  1973.180495                       # Average number of cycles messages are stalled in this MB
system.ruby.network.routers6.port_buffers06.avg_buf_msgs     0.013262                       # Average number of messages in buffer
system.ruby.network.routers6.port_buffers06.avg_stall_time  2522.491777                       # Average number of cycles messages are stalled in this MB
system.ruby.network.routers6.throttle0.link_utilization     3.383488                      
system.ruby.network.routers6.throttle0.msg_bytes.Response_Data::1        13960                      
system.ruby.network.routers6.throttle0.msg_count.Response_Data::1          349                      
system.ruby.network.routers6.throttle1.link_utilization     4.288983                      
system.ruby.network.routers6.throttle1.msg_bytes.Control::0         2792                      
system.ruby.network.routers6.throttle1.msg_bytes.Response_Control::2         1224                      
system.ruby.network.routers6.throttle1.msg_bytes.Response_Data::1        13680                      
system.ruby.network.routers6.throttle1.msg_count.Control::0          349                      
system.ruby.network.routers6.throttle1.msg_count.Response_Control::2          153                      
system.ruby.network.routers6.throttle1.msg_count.Response_Data::1          342                      
system.ruby.network.routers6.throttle2.link_utilization     0.663125                      
system.ruby.network.routers6.throttle2.msg_bytes.Control::0         2736                      
system.ruby.network.routers6.throttle2.msg_count.Control::0          342                      
system.ruby.network.routers6.throttle3.link_utilization            0                      
system.ruby.network.routers6.throttle4.link_utilization            0                      
system.ruby.network.routers6.throttle5.link_utilization            0                      
system.ruby.outstanding_req_hist_seqr::bucket_size            2                      
system.ruby.outstanding_req_hist_seqr::max_bucket           19                      
system.ruby.outstanding_req_hist_seqr::samples         2749                      
system.ruby.outstanding_req_hist_seqr::mean     3.474354                      
system.ruby.outstanding_req_hist_seqr::gmean     2.859570                      
system.ruby.outstanding_req_hist_seqr::stdev     2.273946                      
system.ruby.outstanding_req_hist_seqr    |         445     16.19%     16.19% |        1238     45.03%     61.22% |         602     21.90%     83.12% |         318     11.57%     94.69% |         103      3.75%     98.44% |          16      0.58%     99.02% |           7      0.25%     99.27% |           7      0.25%     99.53% |          13      0.47%    100.00% |           0      0.00%    100.00%
system.ruby.outstanding_req_hist_seqr::total         2749                      
system.switch_cpus.branchPred.BTBCorrect            0                       # Number of correct BTB predictions (this stat may not work properly.
system.switch_cpus.branchPred.BTBHitPct      0.000000                       # BTB Hit Percentage
system.switch_cpus.branchPred.BTBHits               0                       # Number of BTB hits
system.switch_cpus.branchPred.BTBLookups         1668                       # Number of BTB lookups
system.switch_cpus.branchPred.RASInCorrect            1                       # Number of incorrect RAS predictions.
system.switch_cpus.branchPred.condIncorrect          264                       # Number of conditional branches incorrect
system.switch_cpus.branchPred.condPredicted         1526                       # Number of conditional branches predicted
system.switch_cpus.branchPred.indirectHits          358                       # Number of indirect target hits.
system.switch_cpus.branchPred.indirectLookups         1668                       # Number of indirect predictor lookups.
system.switch_cpus.branchPred.indirectMisses         1310                       # Number of indirect misses.
system.switch_cpus.branchPred.lookups            1966                       # Number of BP lookups
system.switch_cpus.branchPred.usedRAS             156                       # Number of times the RAS was used to get a target.
system.switch_cpus.branchPredindirectMispredicted          225                       # Number of mispredicted indirect branches.
system.switch_cpus.cc_regfile_reads              2972                       # number of cc regfile reads
system.switch_cpus.cc_regfile_writes             1628                       # number of cc regfile writes
system.switch_cpus.commit.amos                      0                       # Number of atomic instructions committed
system.switch_cpus.commit.branchMispredicts          264                       # The number of times a branch was mispredicted
system.switch_cpus.commit.branches                592                       # Number of branches committed
system.switch_cpus.commit.bw_lim_events           278                       # number cycles where commit BW limit reached
system.switch_cpus.commit.commitNonSpecStalls            4                       # The number of times commit has been forced to stall to communicate backwards
system.switch_cpus.commit.commitSquashedInsts         5601                       # The number of squashed insts skipped by commit
[...]
system.mem_ctrls.rdQLenPdf::14                      0                       # What read queue length does an incoming req see
system.mem_ctrls.rdQLenPdf::15                      0                       # What read queue length does an incoming req see
system.mem_ctrls.rdQLenPdf::16                      0                       # What read queue length does an incoming req see
system.mem_ctrls.rdQLenPdf::17                      0                       # What read queue length does an incoming req see
system.mem_ctrls.rdQLenPdf::18                      0                       # What read queue length does an incoming req see
system.mem_ctrls.rdQLenPdf::19                      0                       # What read queue length does an incoming req see
system.mem_ctrls.rdQLenPdf::20                      0                       # What read queue length does an incoming req see
system.mem_ctrls.rdQLenPdf::21                      0                       # What read queue length does an incoming req see
system.mem_ctrls.rdQLenPdf::22                      0                       # What read queue length does an incoming req see
system.mem_ctrls.rdQLenPdf::23                      0                       # What read queue length does an incoming req see
system.mem_ctrls.rdQLenPdf::24                      0                       # What read queue length does an incoming req see
system.mem_ctrls.rdQLenPdf::25                      0                       # What read queue length does an incoming req see
system.mem_ctrls.rdQLenPdf::26                      0                       # What read queue length does an incoming req see
system.mem_ctrls.rdQLenPdf::27                      0                       # What read queue length does an incoming req see
system.mem_ctrls.rdQLenPdf::28                      0                       # What read queue length does an incoming req see
system.mem_ctrls.rdQLenPdf::29                      0                       # What read queue length does an incoming req see
system.mem_ctrls.rdQLenPdf::30                      0                       # What read queue length does an incoming req see
system.mem_ctrls.rdQLenPdf::31                      0                       # What read queue length does an incoming req see
system.mem_ctrls.wrQLenPdf::0                       0                       # What write queue length does an incoming req see
system.mem_ctrls.wrQLenPdf::1                       0                       # What write queue length does an incoming req see
system.mem_ctrls.wrQLenPdf::2                       0                       # What write queue length does an incoming req see
system.mem_ctrls.wrQLenPdf::3                       0                       # What write queue length does an incoming req see
system.mem_ctrls.wrQLenPdf::4                       0                       # What write queue length does an incoming req see
system.mem_ctrls.wrQLenPdf::5                       0                       # What write queue length does an incoming req see
system.mem_ctrls.wrQLenPdf::6                       0                       # What write queue length does an incoming req see
system.mem_ctrls.wrQLenPdf::7                       0                       # What write queue length does an incoming req see
system.mem_ctrls.wrQLenPdf::8                       0                       # What write queue length does an incoming req see
system.mem_ctrls.wrQLenPdf::9                       0                       # What write queue length does an incoming req see
system.mem_ctrls.wrQLenPdf::10                      0                       # What write queue length does an incoming req see
system.mem_ctrls.wrQLenPdf::11                      0                       # What write queue length does an incoming req see
system.mem_ctrls.wrQLenPdf::12                      0                       # What write queue length does an incoming req see
system.mem_ctrls.wrQLenPdf::13                      0                       # What write queue length does an incoming req see
system.mem_ctrls.wrQLenPdf::14                      0                       # What write queue length does an incoming req see
system.mem_ctrls.wrQLenPdf::15                      0                       # What write queue length does an incoming req see
system.mem_ctrls.wrQLenPdf::16                      0                       # What write queue length does an incoming req see
system.mem_ctrls.wrQLenPdf::17                      0                       # What write queue length does an incoming req see
system.mem_ctrls.wrQLenPdf::18                      0                       # What write queue length does an incoming req see
system.mem_ctrls.wrQLenPdf::19                      0                       # What write queue length does an incoming req see
system.mem_ctrls.wrQLenPdf::20                      0                       # What write queue length does an incoming req see
system.mem_ctrls.wrQLenPdf::21                      0                       # What write queue length does an incoming req see
system.mem_ctrls.wrQLenPdf::22                      0                       # What write queue length does an incoming req see
system.mem_ctrls.wrQLenPdf::23                      0                       # What write queue length does an incoming req see
system.mem_ctrls.wrQLenPdf::24                      0                       # What write queue length does an incoming req see
system.mem_ctrls.wrQLenPdf::25                      0                       # What write queue length does an incoming req see
system.mem_ctrls.wrQLenPdf::26                      0                       # What write queue length does an incoming req see
system.mem_ctrls.wrQLenPdf::27                      0                       # What write queue length does an incoming req see
system.mem_ctrls.wrQLenPdf::28                      0                       # What write queue length does an incoming req see
system.mem_ctrls.wrQLenPdf::29                      0                       # What write queue length does an incoming req see
system.mem_ctrls.wrQLenPdf::30                      0                       # What write queue length does an incoming req see
system.mem_ctrls.wrQLenPdf::31                      0                       # What write queue length does an incoming req see
system.mem_ctrls.wrQLenPdf::32                      0                       # What write queue length does an incoming req see
system.mem_ctrls.wrQLenPdf::33                      0                       # What write queue length does an incoming req see
system.mem_ctrls.wrQLenPdf::34                      0                       # What write queue length does an incoming req see
system.mem_ctrls.wrQLenPdf::35                      0                       # What write queue length does an incoming req see
system.mem_ctrls.wrQLenPdf::36                      0                       # What write queue length does an incoming req see
system.mem_ctrls.wrQLenPdf::37                      0                       # What write queue length does an incoming req see
system.mem_ctrls.wrQLenPdf::38                      0                       # What write queue length does an incoming req see
system.mem_ctrls.wrQLenPdf::39                      0                       # What write queue length does an incoming req see
system.mem_ctrls.wrQLenPdf::40                      0                       # What write queue length does an incoming req see
system.mem_ctrls.wrQLenPdf::41                      0                       # What write queue length does an incoming req see
system.mem_ctrls.wrQLenPdf::42                      0                       # What write queue length does an incoming req see
system.mem_ctrls.wrQLenPdf::43                      0                       # What write queue length does an incoming req see
system.mem_ctrls.wrQLenPdf::44                      0                       # What write queue length does an incoming req see
system.mem_ctrls.wrQLenPdf::45                      0                       # What write queue length does an incoming req see
system.mem_ctrls.wrQLenPdf::46                      0                       # What write queue length does an incoming req see
system.mem_ctrls.wrQLenPdf::47                      0                       # What write queue length does an incoming req see
system.mem_ctrls.wrQLenPdf::48                      0                       # What write queue length does an incoming req see
system.mem_ctrls.wrQLenPdf::49                      0                       # What write queue length does an incoming req see
system.mem_ctrls.wrQLenPdf::50                      0                       # What write queue length does an incoming req see
system.mem_ctrls.wrQLenPdf::51                      0                       # What write queue length does an incoming req see
system.mem_ctrls.wrQLenPdf::52                      0                       # What write queue length does an incoming req see
system.mem_ctrls.wrQLenPdf::53                      0                       # What write queue length does an incoming req see
system.mem_ctrls.wrQLenPdf::54                      0                       # What write queue length does an incoming req see
system.mem_ctrls.wrQLenPdf::55                      0                       # What write queue length does an incoming req see
system.mem_ctrls.wrQLenPdf::56                      0                       # What write queue length does an incoming req see
system.mem_ctrls.wrQLenPdf::57                      0                       # What write queue length does an incoming req see
system.mem_ctrls.wrQLenPdf::58                      0                       # What write queue length does an incoming req see
system.mem_ctrls.wrQLenPdf::59                      0                       # What write queue length does an incoming req see
system.mem_ctrls.wrQLenPdf::60                      0                       # What write queue length does an incoming req see
system.mem_ctrls.wrQLenPdf::61                      0                       # What write queue length does an incoming req see
system.mem_ctrls.wrQLenPdf::62                      0                       # What write queue length does an incoming req see
system.mem_ctrls.wrQLenPdf::63                      0                       # What write queue length does an incoming req see
system.mem_ctrls.bytesPerActivate::samples         1067                       # Bytes accessed per row activation
system.mem_ctrls.bytesPerActivate::mean    162.429241                       # Bytes accessed per row activation
system.mem_ctrls.bytesPerActivate::gmean   115.157580                       # Bytes accessed per row activation
system.mem_ctrls.bytesPerActivate::stdev   183.352088                       # Bytes accessed per row activation
system.mem_ctrls.bytesPerActivate::0-127          546     51.17%     51.17% # Bytes accessed per row activation
system.mem_ctrls.bytesPerActivate::128-255          338     31.68%     82.85% # Bytes accessed per row activation
system.mem_ctrls.bytesPerActivate::256-383           80      7.50%     90.35% # Bytes accessed per row activation
system.mem_ctrls.bytesPerActivate::384-511           37      3.47%     93.81% # Bytes accessed per row activation
system.mem_ctrls.bytesPerActivate::512-639           23      2.16%     95.97% # Bytes accessed per row activation
system.mem_ctrls.bytesPerActivate::640-767            9      0.84%     96.81% # Bytes accessed per row activation
system.mem_ctrls.bytesPerActivate::768-895            9      0.84%     97.66% # Bytes accessed per row activation
system.mem_ctrls.bytesPerActivate::896-1023            5      0.47%     98.13% # Bytes accessed per row activation
system.mem_ctrls.bytesPerActivate::1024-1151           20      1.87%    100.00% # Bytes accessed per row activation
system.mem_ctrls.bytesPerActivate::total         1067                       # Bytes accessed per row activation
system.mem_ctrls.bytesReadDRAM                 173952                       # Total number of bytes read from DRAM
system.mem_ctrls.bytesReadWrQ                     128                       # Total number of bytes read from write queue
system.mem_ctrls.bytesWritten                       0                       # Total number of bytes written to DRAM
system.mem_ctrls.bytesReadSys                   87040                       # Total read bytes from the system interface side
system.mem_ctrls.bytesWrittenSys                    0                       # Total written bytes from the system interface side
system.mem_ctrls.avgRdBW                       958.86                       # Average DRAM read bandwidth in MiByte/s
system.mem_ctrls.avgWrBW                         0.00                       # Average achieved write bandwidth in MiByte/s
system.mem_ctrls.avgRdBWSys                    479.78                       # Average system read bandwidth in MiByte/s
system.mem_ctrls.avgWrBWSys                      0.00                       # Average system write bandwidth in MiByte/s
system.mem_ctrls.peakBW                      12800.00                       # Theoretical peak bandwidth in MiByte/s
system.mem_ctrls.busUtil                         7.49                       # Data bus utilization in percentage
system.mem_ctrls.busUtilRead                     7.49                       # Data bus utilization in percentage for reads
system.mem_ctrls.busUtilWrite                    0.00                       # Data bus utilization in percentage for writes
system.mem_ctrls.totGap                     181359000                       # Total gap between requests
system.mem_ctrls.avgGap                      66676.10                       # Average gap between requests
system.mem_ctrls.masterReadBytes::.ruby.dir_cntrl0        86976                       # Per-master bytes read from memory
system.mem_ctrls.masterReadRate::.ruby.dir_cntrl0 479430610.004012882710                       # Per-master bytes read from memory rate (Bytes/sec)
system.mem_ctrls.masterReadAccesses::.ruby.dir_cntrl0         2720                       # Per-master read serviced memory accesses
system.mem_ctrls.masterReadTotalLat::.ruby.dir_cntrl0    114027175                       # Per-master read total memory access latency
system.mem_ctrls.masterReadAvgLat::.ruby.dir_cntrl0     41921.76                       # Per-master read average memory access latency
system.mem_ctrls.pageHitRate                    60.67                       # Row buffer hit rate, read and write combined
system.mem_ctrls.rank1.actEnergy         1475593.200000                       # Energy for activate commands per rank (pJ)
system.mem_ctrls.rank1.preEnergy         719980.800000                       # Energy for precharge commands per rank (pJ)
system.mem_ctrls.rank1.readEnergy             5986596                       # Energy for read commands per rank (pJ)
system.mem_ctrls.rank1.writeEnergy                  0                       # Energy for write commands per rank (pJ)
system.mem_ctrls.rank1.refreshEnergy     3658442.400000                       # Energy for refresh commands per rank (pJ)
system.mem_ctrls.rank1.actBackEnergy     16420752.200000                       # Energy for active background per rank (pJ)
system.mem_ctrls.rank1.preBackEnergy     948578.400000                       # Energy for precharge background per rank (pJ)
system.mem_ctrls.rank1.actPowerDownEnergy            0                       # Energy for active power-down per rank (pJ)
system.mem_ctrls.rank1.prePowerDownEnergy            0                       # Energy for precharge power-down per rank (pJ)
system.mem_ctrls.rank1.selfRefreshEnergy            0                       # Energy for self refresh per rank (pJ)
system.mem_ctrls.rank1.totalEnergy       29209943.000000                       # Total energy per rank (pJ)
system.mem_ctrls.rank1.averagePower        161.011553                       # Core power per rank (mW)
system.mem_ctrls.rank1.totalIdleTime                0                       # Total Idle time Per DRAM Rank
system.mem_ctrls.rank1.memoryStateTime::IDLE      9517400                       # Time in different power states
system.mem_ctrls.rank1.memoryStateTime::REF      8460000                       # Time in different power states
system.mem_ctrls.rank1.memoryStateTime::SREF            0                       # Time in different power states
system.mem_ctrls.rank1.memoryStateTime::PRE_PDN            0                       # Time in different power states
system.mem_ctrls.rank1.memoryStateTime::ACT    163437800                       # Time in different power states
system.mem_ctrls.rank1.memoryStateTime::ACT_PDN            0                       # Time in different power states
system.mem_ctrls.rank0.actEnergy         1770104.600000                       # Energy for activate commands per rank (pJ)
system.mem_ctrls.rank0.preEnergy         857472.000000                       # Energy for precharge commands per rank (pJ)
system.mem_ctrls.rank0.readEnergy             7836444                       # Energy for read commands per rank (pJ)
system.mem_ctrls.rank0.writeEnergy                  0                       # Energy for write commands per rank (pJ)
system.mem_ctrls.rank0.refreshEnergy     3658442.400000                       # Energy for refresh commands per rank (pJ)
system.mem_ctrls.rank0.actBackEnergy     16826424.900000                       # Energy for active background per rank (pJ)
system.mem_ctrls.rank0.preBackEnergy     597690.000000                       # Energy for precharge background per rank (pJ)
system.mem_ctrls.rank0.actPowerDownEnergy            0                       # Energy for active power-down per rank (pJ)
system.mem_ctrls.rank0.prePowerDownEnergy            0                       # Energy for precharge power-down per rank (pJ)
system.mem_ctrls.rank0.selfRefreshEnergy            0                       # Energy for self refresh per rank (pJ)
system.mem_ctrls.rank0.totalEnergy       31546577.900000                       # Total energy per rank (pJ)
system.mem_ctrls.rank0.averagePower        173.891592                       # Core power per rank (mW)
system.mem_ctrls.rank0.totalIdleTime                0                       # Total Idle time Per DRAM Rank
system.mem_ctrls.rank0.memoryStateTime::IDLE      5193950                       # Time in different power states
system.mem_ctrls.rank0.memoryStateTime::REF      8460000                       # Time in different power states
system.mem_ctrls.rank0.memoryStateTime::SREF            0                       # Time in different power states
system.mem_ctrls.rank0.memoryStateTime::PRE_PDN            0                       # Time in different power states
system.mem_ctrls.rank0.memoryStateTime::ACT    167761250                       # Time in different power states
system.mem_ctrls.rank0.memoryStateTime::ACT_PDN            0                       # Time in different power states
system.cpu_clk_domain.clock                       400                       # Clock period in ticks
system.cpu.numPwrStateTransitions                   2                       # Number of power state transitions
system.cpu.pwrStateResidencyTicks::ON     39994325600                       # Cumulative time (in ticks) in various power states
system.cpu.pwrStateResidencyTicks::OFF      883130400                       # Cumulative time (in ticks) in various power states
system.cpu.dtb.walker.pwrStateResidencyTicks::UNDEFINED  40877456000                       # Cumulative time (in ticks) in various power states
system.cpu.interrupts.clk_domain.clock          12800                       # Clock period in ticks
system.cpu.itb.walker.pwrStateResidencyTicks::UNDEFINED  40877456000                       # Cumulative time (in ticks) in various power states

---------- End Simulation Statistics   ----------
