gem5 Simulator System.  http://gem5.org
gem5 is copyrighted software; use the --copyright option for details.

gem5 compiled Sep  7 2022 07:15:41
gem5 started Nov  6 2022 19:56:07
gem5 executing on 1e46d1a579d1, pid 112
command line: /workspace/gem5-aladdin/src/aladdin/../../build/X86/gem5.opt --debug-flags=Aladdin,HybridDatapath --outdir=/workspace/smaug/experiments/sims/cippo95/tests/minerva/outputs --stats-db-file=stats.db /workspace/gem5-aladdin/src/aladdin/../../configs/aladdin/aladdin_se.py --num-cpus=1 --mem-size=4GB --mem-type=LPDDR4_3200_2x16 --cpu-clock=2.5GHz --cpu-type=DerivO3CPU --ruby --access-backing-store --mem-channels=4 --l1d_size=64kB --l1i_size=64kB --l1d_assoc=4 --l1i_assoc=4 --l1d_hit_latency=2 --l1i_hit_latency=2 --l2_hit_latency=20 --l2_size=2MB --l2_assoc=16 --cacheline_size=32 --accel_cfg_file=gem5.cfg --fast-forward=10000000000 -c /workspace/smaug/experiments/../build/bin/smaug -o '/workspace/smaug/experiments/models/minerva/minerva_smv_topo.pbtxt /workspace/smaug/experiments/models/minerva/minerva_smv_params.pb --sample-level=high --gem5 --debug-level=0 --num-accels=1'

Global frequency set at 1000000000000 ticks per second
-------------------------------
      Setting ScratchPad       
-------------------------------
      0: system: Registered accelerator 3
      0: system.acc0_datapath: Registering stats.
Switch at instruction count:10000000000
Model topology file: /workspace/smaug/experiments/models/minerva/minerva_smv_topo.pbtxt
Model parameters file: /workspace/smaug/experiments/models/minerva/minerva_smv_params.pb
Sampling level: high, number of sample iterations: 1
Number of accelerators: 1
======================================================
      Loading the network model...
======================================================
Adding data (Data).
Adding reorder (Reorder).
Adding data_1 (Data).
Adding mat_mul (InnerProduct).
Adding data_2 (Data).
Adding mat_mul_1 (InnerProduct).
Adding data_3 (Data).
Adding mat_mul_2 (InnerProduct).
Adding data_4 (Data).
Adding mat_mul_3 (InnerProduct).
======================================================
      Summary of the network.
======================================================
____________________________________________________________________________________________
Layer (type)                             Output shape                 Parameters  
____________________________________________________________________________________________
data_4 (Data)                            (10, 256)                        0       
____________________________________________________________________________________________
data_3 (Data)                            (256, 256)                       0       
____________________________________________________________________________________________
data_2 (Data)                            (256, 256)                       0       
____________________________________________________________________________________________
data_1 (Data)                            (256, 784)                       0       
____________________________________________________________________________________________
data (Data)                              (1, 28, 28, 1)                   0       
____________________________________________________________________________________________
reorder (Reorder)                        (1, 784)                         0       
____________________________________________________________________________________________
mat_mul (InnerProduct)                   (1, 256)                       200704    
____________________________________________________________________________________________
mat_mul_1 (InnerProduct)                 (1, 256)                       65536     
____________________________________________________________________________________________
mat_mul_2 (InnerProduct)                 (1, 256)                       65536     
____________________________________________________________________________________________
mat_mul_3 (InnerProduct)                 (1, 10)                         2560     
____________________________________________________________________________________________
======================================================
      Tiling operators of the network...
======================================================
Tiling data (Data).
Tiling data_1 (Data).
Tiling data_2 (Data).
Tiling data_3 (Data).
Tiling data_4 (Data).
Tiling mat_mul (InnerProduct).
Tiling mat_mul_1 (InnerProduct).
Tiling mat_mul_2 (InnerProduct).
Tiling mat_mul_3 (InnerProduct).
Tiling reorder (Reorder).
Switched CPUS @ tick 49992907000
switching cpus
**** REAL SIMULATION ****
======================================================
      Scheduling operators of the network...
======================================================
Scheduling data (Data).
Scheduling data_1 (Data).
Scheduling data_2 (Data).
Scheduling data_3 (Data).
Scheduling data_4 (Data).
Scheduling reorder (Reorder).
Scheduling mat_mul (InnerProduct).
50095721000: system.acc0_datapath: Setting host_a to memory type dma.
50095835000: system.acc0_datapath: Setting host_b to memory type dma.
50095875000: system.acc0_datapath: Setting host_results to memory type dma.
50101360000: system.acc0_datapath: Inserting array label mapping host_results -> vpn 0x3739a0, size 512.
50101360000: system.acc0_datapath: Mapping vaddr 0x3739a0 -> paddr 0x1a839a0.
50101360000: system.acc0_datapath: Inserting TLB entry vpn 0x373000 -> ppn 0x1a83000.
50104169000: system.acc0_datapath: Inserting array label mapping host_a -> vpn 0x3ab020, size 1568.
50104169000: system.acc0_datapath: Mapping vaddr 0x3ab020 -> paddr 0x1abb020.
50104169000: system.acc0_datapath: Inserting TLB entry vpn 0x3ab000 -> ppn 0x1abb000.
50105918000: system.acc0_datapath: Inserting array label mapping host_b -> vpn 0x3e4f00, size 25088.
50105918000: system.acc0_datapath: Mapping vaddr 0x3e4f00 -> paddr 0x1bd7f00.
50105918000: system.acc0_datapath: Inserting TLB entry vpn 0x3e4000 -> ppn 0x1bd7000.
50105918000: system.acc0_datapath: Mapping vaddr 0x3e5f00 -> paddr 0x1bd8f00.
50105918000: system.acc0_datapath: Inserting TLB entry vpn 0x3e5000 -> ppn 0x1bd8000.
50105918000: system.acc0_datapath: Mapping vaddr 0x3e6f00 -> paddr 0x1bd9f00.
50105918000: system.acc0_datapath: Inserting TLB entry vpn 0x3e6000 -> ppn 0x1bd9000.
50105918000: system.acc0_datapath: Mapping vaddr 0x3e7f00 -> paddr 0x1bdaf00.
50105918000: system.acc0_datapath: Inserting TLB entry vpn 0x3e7000 -> ppn 0x1bda000.
50105918000: system.acc0_datapath: Mapping vaddr 0x3e8f00 -> paddr 0x1bdbf00.
50105918000: system.acc0_datapath: Inserting TLB entry vpn 0x3e8000 -> ppn 0x1bdb000.
50105918000: system.acc0_datapath: Mapping vaddr 0x3e9f00 -> paddr 0x1bdcf00.
50105918000: system.acc0_datapath: Inserting TLB entry vpn 0x3e9000 -> ppn 0x1bdc000.
50105918000: system.acc0_datapath: Mapping vaddr 0x3eaf00 -> paddr 0x1bddf00.
50105918000: system.acc0_datapath: Inserting TLB entry vpn 0x3ea000 -> ppn 0x1bdd000.
50105918000: system.acc0_datapath: Mapping vaddr 0x3ebf00 -> paddr 0x1bdef00.
50105918000: system.acc0_datapath: Inserting TLB entry vpn 0x3eb000 -> ppn 0x1bde000.
50107082000: system.acc0_datapath: Activating accelerator id 3
-------------------------------
      Generating DDDG          
-------------------------------
-------------------------------
Num of Nodes: 108610
Num of Edges: 267418
Num of Reg Edges: 143955
Num of MEM Edges: 14860
Num of Control Edges: 108609
-------------------------------
-------------------------------
    Initializing BaseDatapath      
-------------------------------
 Top level: smv_matrix_multiply_transpose_nc_vec_fxp
=============================================
      Optimizing...            ./outputs/nnet_fwd
=============================================
-------------------------------
  Remove PHI and Convert Nodes 
-------------------------------
  Removing 88444 edges.
  Adding 60323 new edges.
  Removing 951 isolated nodes.
-------------------------------
  Remove Induction Dependence  
-------------------------------
-------------------------------
       Init Base Address       
-------------------------------
-------------------------------
     Init DMA Base Address     
-------------------------------
-------------------------------
        Mem to Reg Conv        
-------------------------------
-------------------------------
      ScratchPad Partition     
-------------------------------
-------------------------------
         Loop Flatten          
-------------------------------
  Removing 11146 isolated nodes.
  Removing 0 isolated nodes.
-------------------------------
         Loop Unrolling        
-------------------------------
  Adding 177114 new edges.
  Removing 1458 isolated nodes.
  Removing 0 isolated nodes.
-------------------------------
          Load Buffer          
-------------------------------
  Adding 1400 new edges.
  Removing 8400 edges.
  Removing 0 isolated nodes.
-------------------------------
          Store Buffer         
-------------------------------
  Adding 12664 new edges.
  Removing 3764 isolated nodes.
  Removing 0 isolated nodes.
-------------------------------
    Remove Repeated Stores     
-------------------------------
-------------------------------
      Memory Ambiguation       
-------------------------------
  Adding 6 new edges.
-------------------------------
     Tree Height Reduction     
-------------------------------
  Removing 8000 edges.
  Adding 8000 new edges.
  Removing 0 isolated nodes.
-------------------------------
  Fuse register loads/stores   
-------------------------------
  Removing 8439 edges.
  Adding 8439 new edges.
  Removing 0 isolated nodes.
-------------------------------
   Fuse consecutive branches   
-------------------------------
  Removing 11147 edges.
  Adding 11147 new edges.
  Removing 0 isolated nodes.
-------------------------------
      Per Loop Pipelining      
-------------------------------
  Adding 78808 new edges.
  Removing 79883 edges.
  Removing 0 isolated nodes.
-------------------------------
         Loop Pipelining        
-------------------------------
=============================================
      Scheduling...            ./outputs/nnet_fwd
=============================================
  Total connected nodes: 82839
  Total edges: 346659
=============================================
50107091000: system.acc0_datapath: Scheduling DMA load operation with node id 70 with delay 588000
50107679000: system.acc0_datapath: Adding DMA node 70 to DMA issue queue.
50107679000: system.acc0_datapath: issueDmaRequest: src_addr: 0x23e88a0, dst_addr: 0x23f2660, size: 1568
50107679000: system.acc0_datapath: DMA Accesses: array label a
50107679000: system.acc0_datapath: Increment the dmaLoad accesses of partition a with size 1568. 
50107717501: system.acc0_datapath: Receiving DMA response for node 70, address 0x23f2660 with label a and size 32.
50107719001: system.acc0_datapath: Receiving DMA response for node 70, address 0x23f2680 with label a and size 32.
50107721001: system.acc0_datapath: Receiving DMA response for node 70, address 0x23f26a0 with label a and size 32.
50107722501: system.acc0_datapath: Receiving DMA response for node 70, address 0x23f26c0 with label a and size 32.
50107724001: system.acc0_datapath: Receiving DMA response for node 70, address 0x23f26e0 with label a and size 32.
50107725501: system.acc0_datapath: Receiving DMA response for node 70, address 0x23f2700 with label a and size 32.
50107727001: system.acc0_datapath: Receiving DMA response for node 70, address 0x23f2720 with label a and size 32.
50107728501: system.acc0_datapath: Receiving DMA response for node 70, address 0x23f2740 with label a and size 32.
50107736001: system.acc0_datapath: Receiving DMA response for node 70, address 0x23f2760 with label a and size 32.
50107737501: system.acc0_datapath: Receiving DMA response for node 70, address 0x23f2780 with label a and size 32.
50107739001: system.acc0_datapath: Receiving DMA response for node 70, address 0x23f27a0 with label a and size 32.
50107740501: system.acc0_datapath: Receiving DMA response for node 70, address 0x23f27c0 with label a and size 32.
50107742001: system.acc0_datapath: Receiving DMA response for node 70, address 0x23f27e0 with label a and size 32.
50107743501: system.acc0_datapath: Receiving DMA response for node 70, address 0x23f2800 with label a and size 32.
50107745001: system.acc0_datapath: Receiving DMA response for node 70, address 0x23f2820 with label a and size 32.
50107746501: system.acc0_datapath: Receiving DMA response for node 70, address 0x23f2840 with label a and size 32.
50107760001: system.acc0_datapath: Receiving DMA response for node 70, address 0x23f2860 with label a and size 32.
50107761501: system.acc0_datapath: Receiving DMA response for node 70, address 0x23f2880 with label a and size 32.
50107774001: system.acc0_datapath: Receiving DMA response for node 70, address 0x23f28a0 with label a and size 32.
50107775501: system.acc0_datapath: Receiving DMA response for node 70, address 0x23f28c0 with label a and size 32.
50107777501: system.acc0_datapath: Receiving DMA response for node 70, address 0x23f28e0 with label a and size 32.
50107779001: system.acc0_datapath: Receiving DMA response for node 70, address 0x23f2900 with label a and size 32.
50107780501: system.acc0_datapath: Receiving DMA response for node 70, address 0x23f2920 with label a and size 32.
50107782001: system.acc0_datapath: Receiving DMA response for node 70, address 0x23f2940 with label a and size 32.
50107783501: system.acc0_datapath: Receiving DMA response for node 70, address 0x23f2960 with label a and size 32.
50107785001: system.acc0_datapath: Receiving DMA response for node 70, address 0x23f2980 with label a and size 32.
50107786501: system.acc0_datapath: Receiving DMA response for node 70, address 0x23f29a0 with label a and size 32.
50107788001: system.acc0_datapath: Receiving DMA response for node 70, address 0x23f29c0 with label a and size 32.
50107795501: system.acc0_datapath: Receiving DMA response for node 70, address 0x23f29e0 with label a and size 32.
50107797001: system.acc0_datapath: Receiving DMA response for node 70, address 0x23f2a00 with label a and size 32.
50107798501: system.acc0_datapath: Receiving DMA response for node 70, address 0x23f2a20 with label a and size 32.
50107800001: system.acc0_datapath: Receiving DMA response for node 70, address 0x23f2a40 with label a and size 32.
50107802501: system.acc0_datapath: Receiving DMA response for node 70, address 0x23f2a60 with label a and size 32.
50107804001: system.acc0_datapath: Receiving DMA response for node 70, address 0x23f2a80 with label a and size 32.
50107815501: system.acc0_datapath: Receiving DMA response for node 70, address 0x23f2aa0 with label a and size 32.
50107817001: system.acc0_datapath: Receiving DMA response for node 70, address 0x23f2ac0 with label a and size 32.
50107818501: system.acc0_datapath: Receiving DMA response for node 70, address 0x23f2ae0 with label a and size 32.
50107820001: system.acc0_datapath: Receiving DMA response for node 70, address 0x23f2b00 with label a and size 32.
50107821501: system.acc0_datapath: Receiving DMA response for node 70, address 0x23f2b20 with label a and size 32.
50107830501: system.acc0_datapath: Receiving DMA response for node 70, address 0x23f2b40 with label a and size 32.
50107832001: system.acc0_datapath: Receiving DMA response for node 70, address 0x23f2b60 with label a and size 32.
50107833501: system.acc0_datapath: Receiving DMA response for node 70, address 0x23f2b80 with label a and size 32.
50107835001: system.acc0_datapath: Receiving DMA response for node 70, address 0x23f2ba0 with label a and size 32.
50107836501: system.acc0_datapath: Receiving DMA response for node 70, address 0x23f2bc0 with label a and size 32.
50107838001: system.acc0_datapath: Receiving DMA response for node 70, address 0x23f2be0 with label a and size 32.
50107839501: system.acc0_datapath: Receiving DMA response for node 70, address 0x23f2c00 with label a and size 32.
50107848001: system.acc0_datapath: Receiving DMA response for node 70, address 0x23f2c20 with label a and size 32.
50107849501: system.acc0_datapath: Receiving DMA response for node 70, address 0x23f2c40 with label a and size 32.
50107851001: system.acc0_datapath: Receiving DMA response for node 70, address 0x23f2c60 with label a and size 32.
50107851001: system.acc0_datapath: dmaCompleteCallback for node 70.
50108008000: system.acc0_datapath: Scheduling DMA load operation with node id 1215 with delay 1536000
50109544000: system.acc0_datapath: Adding DMA node 1215 to DMA issue queue.
50109544000: system.acc0_datapath: issueDmaRequest: src_addr: 0x2422780, dst_addr: 0x24026c0, size: 4096
50109544000: system.acc0_datapath: DMA Accesses: array label b
50109544000: system.acc0_datapath: Increment the dmaLoad accesses of partition b with size 4096. 
50109749501: system.acc0_datapath: Receiving DMA response for node 1215, address 0x24026c0 with label b and size 32.
50109754501: system.acc0_datapath: Receiving DMA response for node 1215, address 0x24026e0 with label b and size 32.
50109759501: system.acc0_datapath: Receiving DMA response for node 1215, address 0x2402700 with label b and size 32.
50109764501: system.acc0_datapath: Receiving DMA response for node 1215, address 0x2402720 with label b and size 32.
50109769501: system.acc0_datapath: Receiving DMA response for node 1215, address 0x2402740 with label b and size 32.
50109774501: system.acc0_datapath: Receiving DMA response for node 1215, address 0x2402760 with label b and size 32.
50109779501: system.acc0_datapath: Receiving DMA response for node 1215, address 0x2402780 with label b and size 32.
50109784501: system.acc0_datapath: Receiving DMA response for node 1215, address 0x24027a0 with label b and size 32.
50109791001: system.acc0_datapath: Receiving DMA response for node 1215, address 0x24027c0 with label b and size 32.
50109796001: system.acc0_datapath: Receiving DMA response for node 1215, address 0x24027e0 with label b and size 32.
50109801001: system.acc0_datapath: Receiving DMA response for node 1215, address 0x2402800 with label b and size 32.
50109806001: system.acc0_datapath: Receiving DMA response for node 1215, address 0x2402820 with label b and size 32.
50109811001: system.acc0_datapath: Receiving DMA response for node 1215, address 0x2402840 with label b and size 32.
50109816001: system.acc0_datapath: Receiving DMA response for node 1215, address 0x2402860 with label b and size 32.
50109821001: system.acc0_datapath: Receiving DMA response for node 1215, address 0x2402880 with label b and size 32.
50109826001: system.acc0_datapath: Receiving DMA response for node 1215, address 0x24028a0 with label b and size 32.
50109831001: system.acc0_datapath: Receiving DMA response for node 1215, address 0x24028c0 with label b and size 32.
50109836001: system.acc0_datapath: Receiving DMA response for node 1215, address 0x24028e0 with label b and size 32.
50109841001: system.acc0_datapath: Receiving DMA response for node 1215, address 0x2402900 with label b and size 32.
50109846001: system.acc0_datapath: Receiving DMA response for node 1215, address 0x2402920 with label b and size 32.
50109851001: system.acc0_datapath: Receiving DMA response for node 1215, address 0x2402940 with label b and size 32.
50109856001: system.acc0_datapath: Receiving DMA response for node 1215, address 0x2402960 with label b and size 32.
50109861001: system.acc0_datapath: Receiving DMA response for node 1215, address 0x2402980 with label b and size 32.
50109866001: system.acc0_datapath: Receiving DMA response for node 1215, address 0x24029a0 with label b and size 32.
50109909501: system.acc0_datapath: Receiving DMA response for node 1215, address 0x24029c0 with label b and size 32.
50109914501: system.acc0_datapath: Receiving DMA response for node 1215, address 0x24029e0 with label b and size 32.
50109919501: system.acc0_datapath: Receiving DMA response for node 1215, address 0x2402a00 with label b and size 32.
50109924501: system.acc0_datapath: Receiving DMA response for node 1215, address 0x2402a20 with label b and size 32.
50109929501: system.acc0_datapath: Receiving DMA response for node 1215, address 0x2402a40 with label b and size 32.
50109934501: system.acc0_datapath: Receiving DMA response for node 1215, address 0x2402a60 with label b and size 32.
50109939501: system.acc0_datapath: Receiving DMA response for node 1215, address 0x2402a80 with label b and size 32.
50109944501: system.acc0_datapath: Receiving DMA response for node 1215, address 0x2402aa0 with label b and size 32.
50109949501: system.acc0_datapath: Receiving DMA response for node 1215, address 0x2402ac0 with label b and size 32.
50109954501: system.acc0_datapath: Receiving DMA response for node 1215, address 0x2402ae0 with label b and size 32.
50109959501: system.acc0_datapath: Receiving DMA response for node 1215, address 0x2402b00 with label b and size 32.
50109964501: system.acc0_datapath: Receiving DMA response for node 1215, address 0x2402b20 with label b and size 32.
50109969501: system.acc0_datapath: Receiving DMA response for node 1215, address 0x2402b40 with label b and size 32.
50109974501: system.acc0_datapath: Receiving DMA response for node 1215, address 0x2402b60 with label b and size 32.
50109979501: system.acc0_datapath: Receiving DMA response for node 1215, address 0x2402b80 with label b and size 32.
50109984501: system.acc0_datapath: Receiving DMA response for node 1215, address 0x2402ba0 with label b and size 32.
50110028001: system.acc0_datapath: Receiving DMA response for node 1215, address 0x2402bc0 with label b and size 32.
50110033001: system.acc0_datapath: Receiving DMA response for node 1215, address 0x2402be0 with label b and size 32.
50110038001: system.acc0_datapath: Receiving DMA response for node 1215, address 0x2402c00 with label b and size 32.
50110043001: system.acc0_datapath: Receiving DMA response for node 1215, address 0x2402c20 with label b and size 32.
50110048001: system.acc0_datapath: Receiving DMA response for node 1215, address 0x2402c40 with label b and size 32.
50110053001: system.acc0_datapath: Receiving DMA response for node 1215, address 0x2402c60 with label b and size 32.
50110058001: system.acc0_datapath: Receiving DMA response for node 1215, address 0x2402c80 with label b and size 32.
50110063001: system.acc0_datapath: Receiving DMA response for node 1215, address 0x2402ca0 with label b and size 32.
50110068001: system.acc0_datapath: Receiving DMA response for node 1215, address 0x2402cc0 with label b and size 32.
50110073001: system.acc0_datapath: Receiving DMA response for node 1215, address 0x2402ce0 with label b and size 32.
50110078001: system.acc0_datapath: Receiving DMA response for node 1215, address 0x2402d00 with label b and size 32.
50110083001: system.acc0_datapath: Receiving DMA response for node 1215, address 0x2402d20 with label b and size 32.
50110088001: system.acc0_datapath: Receiving DMA response for node 1215, address 0x2402d40 with label b and size 32.
50110093001: system.acc0_datapath: Receiving DMA response for node 1215, address 0x2402d60 with label b and size 32.
50110098001: system.acc0_datapath: Receiving DMA response for node 1215, address 0x2402d80 with label b and size 32.
50110103001: system.acc0_datapath: Receiving DMA response for node 1215, address 0x2402da0 with label b and size 32.
50110146501: system.acc0_datapath: Receiving DMA response for node 1215, address 0x2402dc0 with label b and size 32.
50110151501: system.acc0_datapath: Receiving DMA response for node 1215, address 0x2402de0 with label b and size 32.
50110156501: system.acc0_datapath: Receiving DMA response for node 1215, address 0x2402e00 with label b and size 32.
50110161501: system.acc0_datapath: Receiving DMA response for node 1215, address 0x2402e20 with label b and size 32.
50110166501: system.acc0_datapath: Receiving DMA response for node 1215, address 0x2402e40 with label b and size 32.
50110171501: system.acc0_datapath: Receiving DMA response for node 1215, address 0x2402e60 with label b and size 32.
50110176501: system.acc0_datapath: Receiving DMA response for node 1215, address 0x2402e80 with label b and size 32.
50110181501: system.acc0_datapath: Receiving DMA response for node 1215, address 0x2402ea0 with label b and size 32.
50110186501: system.acc0_datapath: Receiving DMA response for node 1215, address 0x2402ec0 with label b and size 32.
50110191501: system.acc0_datapath: Receiving DMA response for node 1215, address 0x2402ee0 with label b and size 32.
50110196501: system.acc0_datapath: Receiving DMA response for node 1215, address 0x2402f00 with label b and size 32.
50110201501: system.acc0_datapath: Receiving DMA response for node 1215, address 0x2402f20 with label b and size 32.
50110206501: system.acc0_datapath: Receiving DMA response for node 1215, address 0x2402f40 with label b and size 32.
50110211501: system.acc0_datapath: Receiving DMA response for node 1215, address 0x2402f60 with label b and size 32.
50110216501: system.acc0_datapath: Receiving DMA response for node 1215, address 0x2402f80 with label b and size 32.
50110221501: system.acc0_datapath: Receiving DMA response for node 1215, address 0x2402fa0 with label b and size 32.
50110265001: system.acc0_datapath: Receiving DMA response for node 1215, address 0x2402fc0 with label b and size 32.
50110270001: system.acc0_datapath: Receiving DMA response for node 1215, address 0x2402fe0 with label b and size 32.
50110275001: system.acc0_datapath: Receiving DMA response for node 1215, address 0x2403000 with label b and size 32.
50110280001: system.acc0_datapath: Receiving DMA response for node 1215, address 0x2403020 with label b and size 32.
50110285001: system.acc0_datapath: Receiving DMA response for node 1215, address 0x2403040 with label b and size 32.
50110290001: system.acc0_datapath: Receiving DMA response for node 1215, address 0x2403060 with label b and size 32.
50110295001: system.acc0_datapath: Receiving DMA response for node 1215, address 0x2403080 with label b and size 32.
50110300001: system.acc0_datapath: Receiving DMA response for node 1215, address 0x24030a0 with label b and size 32.
50110305001: system.acc0_datapath: Receiving DMA response for node 1215, address 0x24030c0 with label b and size 32.
50110310001: system.acc0_datapath: Receiving DMA response for node 1215, address 0x24030e0 with label b and size 32.
50110315001: system.acc0_datapath: Receiving DMA response for node 1215, address 0x2403100 with label b and size 32.
50110320001: system.acc0_datapath: Receiving DMA response for node 1215, address 0x2403120 with label b and size 32.
50110325001: system.acc0_datapath: Receiving DMA response for node 1215, address 0x2403140 with label b and size 32.
50110330001: system.acc0_datapath: Receiving DMA response for node 1215, address 0x2403160 with label b and size 32.
50110335001: system.acc0_datapath: Receiving DMA response for node 1215, address 0x2403180 with label b and size 32.
50110340001: system.acc0_datapath: Receiving DMA response for node 1215, address 0x24031a0 with label b and size 32.
50110383501: system.acc0_datapath: Receiving DMA response for node 1215, address 0x24031c0 with label b and size 32.
50110388501: system.acc0_datapath: Receiving DMA response for node 1215, address 0x24031e0 with label b and size 32.
50110393501: system.acc0_datapath: Receiving DMA response for node 1215, address 0x2403200 with label b and size 32.
50110398501: system.acc0_datapath: Receiving DMA response for node 1215, address 0x2403220 with label b and size 32.
50110403501: system.acc0_datapath: Receiving DMA response for node 1215, address 0x2403240 with label b and size 32.
50110408501: system.acc0_datapath: Receiving DMA response for node 1215, address 0x2403260 with label b and size 32.
50110413501: system.acc0_datapath: Receiving DMA response for node 1215, address 0x2403280 with label b and size 32.
50110418501: system.acc0_datapath: Receiving DMA response for node 1215, address 0x24032a0 with label b and size 32.
50110423501: system.acc0_datapath: Receiving DMA response for node 1215, address 0x24032c0 with label b and size 32.
50110428501: system.acc0_datapath: Receiving DMA response for node 1215, address 0x24032e0 with label b and size 32.
50110433501: system.acc0_datapath: Receiving DMA response for node 1215, address 0x2403300 with label b and size 32.
50110438501: system.acc0_datapath: Receiving DMA response for node 1215, address 0x2403320 with label b and size 32.
50110443501: system.acc0_datapath: Receiving DMA response for node 1215, address 0x2403340 with label b and size 32.
50110448501: system.acc0_datapath: Receiving DMA response for node 1215, address 0x2403360 with label b and size 32.
50110453501: system.acc0_datapath: Receiving DMA response for node 1215, address 0x2403380 with label b and size 32.
50110458501: system.acc0_datapath: Receiving DMA response for node 1215, address 0x24033a0 with label b and size 32.
50110502001: system.acc0_datapath: Receiving DMA response for node 1215, address 0x24033c0 with label b and size 32.
50110507001: system.acc0_datapath: Receiving DMA response for node 1215, address 0x24033e0 with label b and size 32.
50110512001: system.acc0_datapath: Receiving DMA response for node 1215, address 0x2403400 with label b and size 32.
50110517001: system.acc0_datapath: Receiving DMA response for node 1215, address 0x2403420 with label b and size 32.
50110522001: system.acc0_datapath: Receiving DMA response for node 1215, address 0x2403440 with label b and size 32.
50110527001: system.acc0_datapath: Receiving DMA response for node 1215, address 0x2403460 with label b and size 32.
50110532001: system.acc0_datapath: Receiving DMA response for node 1215, address 0x2403480 with label b and size 32.
50110537001: system.acc0_datapath: Receiving DMA response for node 1215, address 0x24034a0 with label b and size 32.
50110542001: system.acc0_datapath: Receiving DMA response for node 1215, address 0x24034c0 with label b and size 32.
50110547001: system.acc0_datapath: Receiving DMA response for node 1215, address 0x24034e0 with label b and size 32.
50110552001: system.acc0_datapath: Receiving DMA response for node 1215, address 0x2403500 with label b and size 32.
50110557001: system.acc0_datapath: Receiving DMA response for node 1215, address 0x2403520 with label b and size 32.
50110562001: system.acc0_datapath: Receiving DMA response for node 1215, address 0x2403540 with label b and size 32.
50110567001: system.acc0_datapath: Receiving DMA response for node 1215, address 0x2403560 with label b and size 32.
50110572001: system.acc0_datapath: Receiving DMA response for node 1215, address 0x2403580 with label b and size 32.
50110577001: system.acc0_datapath: Receiving DMA response for node 1215, address 0x24035a0 with label b and size 32.
50110620501: system.acc0_datapath: Receiving DMA response for node 1215, address 0x24035c0 with label b and size 32.
50110625501: system.acc0_datapath: Receiving DMA response for node 1215, address 0x24035e0 with label b and size 32.
50110630501: system.acc0_datapath: Receiving DMA response for node 1215, address 0x2403600 with label b and size 32.
50110635501: system.acc0_datapath: Receiving DMA response for node 1215, address 0x2403620 with label b and size 32.
50110640501: system.acc0_datapath: Receiving DMA response for node 1215, address 0x2403640 with label b and size 32.
50110645501: system.acc0_datapath: Receiving DMA response for node 1215, address 0x2403660 with label b and size 32.
50110650501: system.acc0_datapath: Receiving DMA response for node 1215, address 0x2403680 with label b and size 32.
50110655501: system.acc0_datapath: Receiving DMA response for node 1215, address 0x24036a0 with label b and size 32.
50110655501: system.acc0_datapath: dmaCompleteCallback for node 1215.
50111041000: system.acc0_datapath: Scheduling DMA load operation with node id 4065 with delay 1536000
50112577000: system.acc0_datapath: Adding DMA node 4065 to DMA issue queue.
50112577000: system.acc0_datapath: issueDmaRequest: src_addr: 0x2423780, dst_addr: 0x24046c0, size: 4096
50112577000: system.acc0_datapath: DMA Accesses: array label b
50112577000: system.acc0_datapath: Increment the dmaLoad accesses of partition b with size 4096. 
50112630501: system.acc0_datapath: Receiving DMA response for node 4065, address 0x24046c0 with label b and size 32.
50112635501: system.acc0_datapath: Receiving DMA response for node 4065, address 0x24046e0 with label b and size 32.
50112640501: system.acc0_datapath: Receiving DMA response for node 4065, address 0x2404700 with label b and size 32.
50112645501: system.acc0_datapath: Receiving DMA response for node 4065, address 0x2404720 with label b and size 32.
50112650501: system.acc0_datapath: Receiving DMA response for node 4065, address 0x2404740 with label b and size 32.
50112655501: system.acc0_datapath: Receiving DMA response for node 4065, address 0x2404760 with label b and size 32.
50112660501: system.acc0_datapath: Receiving DMA response for node 4065, address 0x2404780 with label b and size 32.
50112665501: system.acc0_datapath: Receiving DMA response for node 4065, address 0x24047a0 with label b and size 32.
50112670501: system.acc0_datapath: Receiving DMA response for node 4065, address 0x24047c0 with label b and size 32.
50112675501: system.acc0_datapath: Receiving DMA response for node 4065, address 0x24047e0 with label b and size 32.
50112680501: system.acc0_datapath: Receiving DMA response for node 4065, address 0x2404800 with label b and size 32.
50112685501: system.acc0_datapath: Receiving DMA response for node 4065, address 0x2404820 with label b and size 32.
50112690501: system.acc0_datapath: Receiving DMA response for node 4065, address 0x2404840 with label b and size 32.
50112695501: system.acc0_datapath: Receiving DMA response for node 4065, address 0x2404860 with label b and size 32.
50112700501: system.acc0_datapath: Receiving DMA response for node 4065, address 0x2404880 with label b and size 32.
50112705501: system.acc0_datapath: Receiving DMA response for node 4065, address 0x24048a0 with label b and size 32.
50112710501: system.acc0_datapath: Receiving DMA response for node 4065, address 0x24048c0 with label b and size 32.
50112715501: system.acc0_datapath: Receiving DMA response for node 4065, address 0x24048e0 with label b and size 32.
50112720501: system.acc0_datapath: Receiving DMA response for node 4065, address 0x2404900 with label b and size 32.
50112725501: system.acc0_datapath: Receiving DMA response for node 4065, address 0x2404920 with label b and size 32.
50112730501: system.acc0_datapath: Receiving DMA response for node 4065, address 0x2404940 with label b and size 32.
50112735501: system.acc0_datapath: Receiving DMA response for node 4065, address 0x2404960 with label b and size 32.
50112740501: system.acc0_datapath: Receiving DMA response for node 4065, address 0x2404980 with label b and size 32.
50112745501: system.acc0_datapath: Receiving DMA response for node 4065, address 0x24049a0 with label b and size 32.
50112789001: system.acc0_datapath: Receiving DMA response for node 4065, address 0x24049c0 with label b and size 32.
50112794001: system.acc0_datapath: Receiving DMA response for node 4065, address 0x24049e0 with label b and size 32.
50112799001: system.acc0_datapath: Receiving DMA response for node 4065, address 0x2404a00 with label b and size 32.
50112804001: system.acc0_datapath: Receiving DMA response for node 4065, address 0x2404a20 with label b and size 32.
50112809001: system.acc0_datapath: Receiving DMA response for node 4065, address 0x2404a40 with label b and size 32.
50112814001: system.acc0_datapath: Receiving DMA response for node 4065, address 0x2404a60 with label b and size 32.
50112819001: system.acc0_datapath: Receiving DMA response for node 4065, address 0x2404a80 with label b and size 32.
50112824001: system.acc0_datapath: Receiving DMA response for node 4065, address 0x2404aa0 with label b and size 32.
50112829001: system.acc0_datapath: Receiving DMA response for node 4065, address 0x2404ac0 with label b and size 32.
50112834001: system.acc0_datapath: Receiving DMA response for node 4065, address 0x2404ae0 with label b and size 32.
50112839001: system.acc0_datapath: Receiving DMA response for node 4065, address 0x2404b00 with label b and size 32.
50112844001: system.acc0_datapath: Receiving DMA response for node 4065, address 0x2404b20 with label b and size 32.
50112849001: system.acc0_datapath: Receiving DMA response for node 4065, address 0x2404b40 with label b and size 32.
50112854001: system.acc0_datapath: Receiving DMA response for node 4065, address 0x2404b60 with label b and size 32.
50112859001: system.acc0_datapath: Receiving DMA response for node 4065, address 0x2404b80 with label b and size 32.
50112864001: system.acc0_datapath: Receiving DMA response for node 4065, address 0x2404ba0 with label b and size 32.
50112907501: system.acc0_datapath: Receiving DMA response for node 4065, address 0x2404bc0 with label b and size 32.
50112912501: system.acc0_datapath: Receiving DMA response for node 4065, address 0x2404be0 with label b and size 32.
50112917501: system.acc0_datapath: Receiving DMA response for node 4065, address 0x2404c00 with label b and size 32.
50112922501: system.acc0_datapath: Receiving DMA response for node 4065, address 0x2404c20 with label b and size 32.
50112927501: system.acc0_datapath: Receiving DMA response for node 4065, address 0x2404c40 with label b and size 32.
50112932501: system.acc0_datapath: Receiving DMA response for node 4065, address 0x2404c60 with label b and size 32.
50112937501: system.acc0_datapath: Receiving DMA response for node 4065, address 0x2404c80 with label b and size 32.
50112942501: system.acc0_datapath: Receiving DMA response for node 4065, address 0x2404ca0 with label b and size 32.
50112947501: system.acc0_datapath: Receiving DMA response for node 4065, address 0x2404cc0 with label b and size 32.
50112952501: system.acc0_datapath: Receiving DMA response for node 4065, address 0x2404ce0 with label b and size 32.
50112957501: system.acc0_datapath: Receiving DMA response for node 4065, address 0x2404d00 with label b and size 32.
50112962501: system.acc0_datapath: Receiving DMA response for node 4065, address 0x2404d20 with label b and size 32.
50112967501: system.acc0_datapath: Receiving DMA response for node 4065, address 0x2404d40 with label b and size 32.
50112972501: system.acc0_datapath: Receiving DMA response for node 4065, address 0x2404d60 with label b and size 32.
50112977501: system.acc0_datapath: Receiving DMA response for node 4065, address 0x2404d80 with label b and size 32.
50112982501: system.acc0_datapath: Receiving DMA response for node 4065, address 0x2404da0 with label b and size 32.
50113026001: system.acc0_datapath: Receiving DMA response for node 4065, address 0x2404dc0 with label b and size 32.
50113031001: system.acc0_datapath: Receiving DMA response for node 4065, address 0x2404de0 with label b and size 32.
50113036001: system.acc0_datapath: Receiving DMA response for node 4065, address 0x2404e00 with label b and size 32.
50113041001: system.acc0_datapath: Receiving DMA response for node 4065, address 0x2404e20 with label b and size 32.
50113046001: system.acc0_datapath: Receiving DMA response for node 4065, address 0x2404e40 with label b and size 32.
50113051001: system.acc0_datapath: Receiving DMA response for node 4065, address 0x2404e60 with label b and size 32.
50113056001: system.acc0_datapath: Receiving DMA response for node 4065, address 0x2404e80 with label b and size 32.
50113061001: system.acc0_datapath: Receiving DMA response for node 4065, address 0x2404ea0 with label b and size 32.
50113066001: system.acc0_datapath: Receiving DMA response for node 4065, address 0x2404ec0 with label b and size 32.
50113071001: system.acc0_datapath: Receiving DMA response for node 4065, address 0x2404ee0 with label b and size 32.
50113076001: system.acc0_datapath: Receiving DMA response for node 4065, address 0x2404f00 with label b and size 32.
50113081001: system.acc0_datapath: Receiving DMA response for node 4065, address 0x2404f20 with label b and size 32.
50113086001: system.acc0_datapath: Receiving DMA response for node 4065, address 0x2404f40 with label b and size 32.
50113091001: system.acc0_datapath: Receiving DMA response for node 4065, address 0x2404f60 with label b and size 32.
50113096001: system.acc0_datapath: Receiving DMA response for node 4065, address 0x2404f80 with label b and size 32.
50113101001: system.acc0_datapath: Receiving DMA response for node 4065, address 0x2404fa0 with label b and size 32.
50113144501: system.acc0_datapath: Receiving DMA response for node 4065, address 0x2404fc0 with label b and size 32.
50113149501: system.acc0_datapath: Receiving DMA response for node 4065, address 0x2404fe0 with label b and size 32.
50113154501: system.acc0_datapath: Receiving DMA response for node 4065, address 0x2405000 with label b and size 32.
50113159501: system.acc0_datapath: Receiving DMA response for node 4065, address 0x2405020 with label b and size 32.
50113164501: system.acc0_datapath: Receiving DMA response for node 4065, address 0x2405040 with label b and size 32.
50113169501: system.acc0_datapath: Receiving DMA response for node 4065, address 0x2405060 with label b and size 32.
50113174501: system.acc0_datapath: Receiving DMA response for node 4065, address 0x2405080 with label b and size 32.
50113179501: system.acc0_datapath: Receiving DMA response for node 4065, address 0x24050a0 with label b and size 32.
50113184501: system.acc0_datapath: Receiving DMA response for node 4065, address 0x24050c0 with label b and size 32.
50113189501: system.acc0_datapath: Receiving DMA response for node 4065, address 0x24050e0 with label b and size 32.
50113194501: system.acc0_datapath: Receiving DMA response for node 4065, address 0x2405100 with label b and size 32.
50113199501: system.acc0_datapath: Receiving DMA response for node 4065, address 0x2405120 with label b and size 32.
50113204501: system.acc0_datapath: Receiving DMA response for node 4065, address 0x2405140 with label b and size 32.
50113209501: system.acc0_datapath: Receiving DMA response for node 4065, address 0x2405160 with label b and size 32.
50113214501: system.acc0_datapath: Receiving DMA response for node 4065, address 0x2405180 with label b and size 32.
50113219501: system.acc0_datapath: Receiving DMA response for node 4065, address 0x24051a0 with label b and size 32.
50113263001: system.acc0_datapath: Receiving DMA response for node 4065, address 0x24051c0 with label b and size 32.
50113268001: system.acc0_datapath: Receiving DMA response for node 4065, address 0x24051e0 with label b and size 32.
50113273001: system.acc0_datapath: Receiving DMA response for node 4065, address 0x2405200 with label b and size 32.
50113278001: system.acc0_datapath: Receiving DMA response for node 4065, address 0x2405220 with label b and size 32.
50113283001: system.acc0_datapath: Receiving DMA response for node 4065, address 0x2405240 with label b and size 32.
50113288001: system.acc0_datapath: Receiving DMA response for node 4065, address 0x2405260 with label b and size 32.
50113293001: system.acc0_datapath: Receiving DMA response for node 4065, address 0x2405280 with label b and size 32.
50113298001: system.acc0_datapath: Receiving DMA response for node 4065, address 0x24052a0 with label b and size 32.
50113303001: system.acc0_datapath: Receiving DMA response for node 4065, address 0x24052c0 with label b and size 32.
50113308001: system.acc0_datapath: Receiving DMA response for node 4065, address 0x24052e0 with label b and size 32.
50113313001: system.acc0_datapath: Receiving DMA response for node 4065, address 0x2405300 with label b and size 32.
50113318001: system.acc0_datapath: Receiving DMA response for node 4065, address 0x2405320 with label b and size 32.
50113323001: system.acc0_datapath: Receiving DMA response for node 4065, address 0x2405340 with label b and size 32.
50113328001: system.acc0_datapath: Receiving DMA response for node 4065, address 0x2405360 with label b and size 32.
50113333001: system.acc0_datapath: Receiving DMA response for node 4065, address 0x2405380 with label b and size 32.
50113338001: system.acc0_datapath: Receiving DMA response for node 4065, address 0x24053a0 with label b and size 32.
50113381501: system.acc0_datapath: Receiving DMA response for node 4065, address 0x24053c0 with label b and size 32.
50113386501: system.acc0_datapath: Receiving DMA response for node 4065, address 0x24053e0 with label b and size 32.
50113391501: system.acc0_datapath: Receiving DMA response for node 4065, address 0x2405400 with label b and size 32.
50113396501: system.acc0_datapath: Receiving DMA response for node 4065, address 0x2405420 with label b and size 32.
50113401501: system.acc0_datapath: Receiving DMA response for node 4065, address 0x2405440 with label b and size 32.
50113406501: system.acc0_datapath: Receiving DMA response for node 4065, address 0x2405460 with label b and size 32.
50113411501: system.acc0_datapath: Receiving DMA response for node 4065, address 0x2405480 with label b and size 32.
50113416501: system.acc0_datapath: Receiving DMA response for node 4065, address 0x24054a0 with label b and size 32.
50113421501: system.acc0_datapath: Receiving DMA response for node 4065, address 0x24054c0 with label b and size 32.
50113426501: system.acc0_datapath: Receiving DMA response for node 4065, address 0x24054e0 with label b and size 32.
50113431501: system.acc0_datapath: Receiving DMA response for node 4065, address 0x2405500 with label b and size 32.
50113436501: system.acc0_datapath: Receiving DMA response for node 4065, address 0x2405520 with label b and size 32.
50113441501: system.acc0_datapath: Receiving DMA response for node 4065, address 0x2405540 with label b and size 32.
50113446501: system.acc0_datapath: Receiving DMA response for node 4065, address 0x2405560 with label b and size 32.
50113451501: system.acc0_datapath: Receiving DMA response for node 4065, address 0x2405580 with label b and size 32.
50113675001: system.acc0_datapath: Receiving DMA response for node 4065, address 0x24055a0 with label b and size 32.
50113680001: system.acc0_datapath: Receiving DMA response for node 4065, address 0x24055c0 with label b and size 32.
50113685001: system.acc0_datapath: Receiving DMA response for node 4065, address 0x24055e0 with label b and size 32.
50113690001: system.acc0_datapath: Receiving DMA response for node 4065, address 0x2405600 with label b and size 32.
50113695001: system.acc0_datapath: Receiving DMA response for node 4065, address 0x2405620 with label b and size 32.
50113700001: system.acc0_datapath: Receiving DMA response for node 4065, address 0x2405640 with label b and size 32.
50113705001: system.acc0_datapath: Receiving DMA response for node 4065, address 0x2405660 with label b and size 32.
50113710001: system.acc0_datapath: Receiving DMA response for node 4065, address 0x2405680 with label b and size 32.
50113715001: system.acc0_datapath: Receiving DMA response for node 4065, address 0x24056a0 with label b and size 32.
50113715001: system.acc0_datapath: dmaCompleteCallback for node 4065.
50114101000: system.acc0_datapath: Scheduling DMA load operation with node id 6915 with delay 1536000
50115637000: system.acc0_datapath: Adding DMA node 6915 to DMA issue queue.
50115637000: system.acc0_datapath: issueDmaRequest: src_addr: 0x2424780, dst_addr: 0x24066c0, size: 4096
50115637000: system.acc0_datapath: DMA Accesses: array label b
50115637000: system.acc0_datapath: Increment the dmaLoad accesses of partition b with size 4096. 
50115690501: system.acc0_datapath: Receiving DMA response for node 6915, address 0x24066c0 with label b and size 32.
50115695501: system.acc0_datapath: Receiving DMA response for node 6915, address 0x24066e0 with label b and size 32.
50115700501: system.acc0_datapath: Receiving DMA response for node 6915, address 0x2406700 with label b and size 32.
50115705501: system.acc0_datapath: Receiving DMA response for node 6915, address 0x2406720 with label b and size 32.
50115710501: system.acc0_datapath: Receiving DMA response for node 6915, address 0x2406740 with label b and size 32.
50115715501: system.acc0_datapath: Receiving DMA response for node 6915, address 0x2406760 with label b and size 32.
50115720501: system.acc0_datapath: Receiving DMA response for node 6915, address 0x2406780 with label b and size 32.
50115764001: system.acc0_datapath: Receiving DMA response for node 6915, address 0x24067a0 with label b and size 32.
50115774001: system.acc0_datapath: Receiving DMA response for node 6915, address 0x24067c0 with label b and size 32.
50115779001: system.acc0_datapath: Receiving DMA response for node 6915, address 0x24067e0 with label b and size 32.
50115784001: system.acc0_datapath: Receiving DMA response for node 6915, address 0x2406800 with label b and size 32.
50115789001: system.acc0_datapath: Receiving DMA response for node 6915, address 0x2406820 with label b and size 32.
50115794001: system.acc0_datapath: Receiving DMA response for node 6915, address 0x2406840 with label b and size 32.
50115799001: system.acc0_datapath: Receiving DMA response for node 6915, address 0x2406860 with label b and size 32.
50115804001: system.acc0_datapath: Receiving DMA response for node 6915, address 0x2406880 with label b and size 32.
50115809001: system.acc0_datapath: Receiving DMA response for node 6915, address 0x24068a0 with label b and size 32.
50115814001: system.acc0_datapath: Receiving DMA response for node 6915, address 0x24068c0 with label b and size 32.
50115819001: system.acc0_datapath: Receiving DMA response for node 6915, address 0x24068e0 with label b and size 32.
50115824001: system.acc0_datapath: Receiving DMA response for node 6915, address 0x2406900 with label b and size 32.
50115829001: system.acc0_datapath: Receiving DMA response for node 6915, address 0x2406920 with label b and size 32.
50115834001: system.acc0_datapath: Receiving DMA response for node 6915, address 0x2406940 with label b and size 32.
50115839001: system.acc0_datapath: Receiving DMA response for node 6915, address 0x2406960 with label b and size 32.
50115844001: system.acc0_datapath: Receiving DMA response for node 6915, address 0x2406980 with label b and size 32.
50115849001: system.acc0_datapath: Receiving DMA response for node 6915, address 0x24069a0 with label b and size 32.
50115892501: system.acc0_datapath: Receiving DMA response for node 6915, address 0x24069c0 with label b and size 32.
50115897501: system.acc0_datapath: Receiving DMA response for node 6915, address 0x24069e0 with label b and size 32.
50115902501: system.acc0_datapath: Receiving DMA response for node 6915, address 0x2406a00 with label b and size 32.
50115907501: system.acc0_datapath: Receiving DMA response for node 6915, address 0x2406a20 with label b and size 32.
50115912501: system.acc0_datapath: Receiving DMA response for node 6915, address 0x2406a40 with label b and size 32.
50115917501: system.acc0_datapath: Receiving DMA response for node 6915, address 0x2406a60 with label b and size 32.
50115922501: system.acc0_datapath: Receiving DMA response for node 6915, address 0x2406a80 with label b and size 32.
50115927501: system.acc0_datapath: Receiving DMA response for node 6915, address 0x2406aa0 with label b and size 32.
50115932501: system.acc0_datapath: Receiving DMA response for node 6915, address 0x2406ac0 with label b and size 32.
50115937501: system.acc0_datapath: Receiving DMA response for node 6915, address 0x2406ae0 with label b and size 32.
50115942501: system.acc0_datapath: Receiving DMA response for node 6915, address 0x2406b00 with label b and size 32.
50115947501: system.acc0_datapath: Receiving DMA response for node 6915, address 0x2406b20 with label b and size 32.
50115952501: system.acc0_datapath: Receiving DMA response for node 6915, address 0x2406b40 with label b and size 32.
50115957501: system.acc0_datapath: Receiving DMA response for node 6915, address 0x2406b60 with label b and size 32.
50115962501: system.acc0_datapath: Receiving DMA response for node 6915, address 0x2406b80 with label b and size 32.
50115967501: system.acc0_datapath: Receiving DMA response for node 6915, address 0x2406ba0 with label b and size 32.
50116011001: system.acc0_datapath: Receiving DMA response for node 6915, address 0x2406bc0 with label b and size 32.
50116016001: system.acc0_datapath: Receiving DMA response for node 6915, address 0x2406be0 with label b and size 32.
50116021001: system.acc0_datapath: Receiving DMA response for node 6915, address 0x2406c00 with label b and size 32.
50116026001: system.acc0_datapath: Receiving DMA response for node 6915, address 0x2406c20 with label b and size 32.
50116031001: system.acc0_datapath: Receiving DMA response for node 6915, address 0x2406c40 with label b and size 32.
50116036001: system.acc0_datapath: Receiving DMA response for node 6915, address 0x2406c60 with label b and size 32.
50116041001: system.acc0_datapath: Receiving DMA response for node 6915, address 0x2406c80 with label b and size 32.
50116046001: system.acc0_datapath: Receiving DMA response for node 6915, address 0x2406ca0 with label b and size 32.
50116051001: system.acc0_datapath: Receiving DMA response for node 6915, address 0x2406cc0 with label b and size 32.
50116056001: system.acc0_datapath: Receiving DMA response for node 6915, address 0x2406ce0 with label b and size 32.
50116061001: system.acc0_datapath: Receiving DMA response for node 6915, address 0x2406d00 with label b and size 32.
50116066001: system.acc0_datapath: Receiving DMA response for node 6915, address 0x2406d20 with label b and size 32.
50116071001: system.acc0_datapath: Receiving DMA response for node 6915, address 0x2406d40 with label b and size 32.
50116076001: system.acc0_datapath: Receiving DMA response for node 6915, address 0x2406d60 with label b and size 32.
50116081001: system.acc0_datapath: Receiving DMA response for node 6915, address 0x2406d80 with label b and size 32.
50116086001: system.acc0_datapath: Receiving DMA response for node 6915, address 0x2406da0 with label b and size 32.
50116129501: system.acc0_datapath: Receiving DMA response for node 6915, address 0x2406dc0 with label b and size 32.
50116134501: system.acc0_datapath: Receiving DMA response for node 6915, address 0x2406de0 with label b and size 32.
50116139501: system.acc0_datapath: Receiving DMA response for node 6915, address 0x2406e00 with label b and size 32.
50116144501: system.acc0_datapath: Receiving DMA response for node 6915, address 0x2406e20 with label b and size 32.
50116149501: system.acc0_datapath: Receiving DMA response for node 6915, address 0x2406e40 with label b and size 32.
50116154501: system.acc0_datapath: Receiving DMA response for node 6915, address 0x2406e60 with label b and size 32.
50116159501: system.acc0_datapath: Receiving DMA response for node 6915, address 0x2406e80 with label b and size 32.
50116164501: system.acc0_datapath: Receiving DMA response for node 6915, address 0x2406ea0 with label b and size 32.
50116169501: system.acc0_datapath: Receiving DMA response for node 6915, address 0x2406ec0 with label b and size 32.
50116174501: system.acc0_datapath: Receiving DMA response for node 6915, address 0x2406ee0 with label b and size 32.
50116179501: system.acc0_datapath: Receiving DMA response for node 6915, address 0x2406f00 with label b and size 32.
50116184501: system.acc0_datapath: Receiving DMA response for node 6915, address 0x2406f20 with label b and size 32.
50116189501: system.acc0_datapath: Receiving DMA response for node 6915, address 0x2406f40 with label b and size 32.
50116194501: system.acc0_datapath: Receiving DMA response for node 6915, address 0x2406f60 with label b and size 32.
50116199501: system.acc0_datapath: Receiving DMA response for node 6915, address 0x2406f80 with label b and size 32.
50116204501: system.acc0_datapath: Receiving DMA response for node 6915, address 0x2406fa0 with label b and size 32.
50116248001: system.acc0_datapath: Receiving DMA response for node 6915, address 0x2406fc0 with label b and size 32.
50116253001: system.acc0_datapath: Receiving DMA response for node 6915, address 0x2406fe0 with label b and size 32.
50116258001: system.acc0_datapath: Receiving DMA response for node 6915, address 0x2407000 with label b and size 32.
50116263001: system.acc0_datapath: Receiving DMA response for node 6915, address 0x2407020 with label b and size 32.
50116268001: system.acc0_datapath: Receiving DMA response for node 6915, address 0x2407040 with label b and size 32.
50116273001: system.acc0_datapath: Receiving DMA response for node 6915, address 0x2407060 with label b and size 32.
50116278001: system.acc0_datapath: Receiving DMA response for node 6915, address 0x2407080 with label b and size 32.
50116283001: system.acc0_datapath: Receiving DMA response for node 6915, address 0x24070a0 with label b and size 32.
50116288001: system.acc0_datapath: Receiving DMA response for node 6915, address 0x24070c0 with label b and size 32.
50116293001: system.acc0_datapath: Receiving DMA response for node 6915, address 0x24070e0 with label b and size 32.
50116298001: system.acc0_datapath: Receiving DMA response for node 6915, address 0x2407100 with label b and size 32.
50116303001: system.acc0_datapath: Receiving DMA response for node 6915, address 0x2407120 with label b and size 32.
50116308001: system.acc0_datapath: Receiving DMA response for node 6915, address 0x2407140 with label b and size 32.
50116313001: system.acc0_datapath: Receiving DMA response for node 6915, address 0x2407160 with label b and size 32.
50116318001: system.acc0_datapath: Receiving DMA response for node 6915, address 0x2407180 with label b and size 32.
50116323001: system.acc0_datapath: Receiving DMA response for node 6915, address 0x24071a0 with label b and size 32.
50116366501: system.acc0_datapath: Receiving DMA response for node 6915, address 0x24071c0 with label b and size 32.
50116371501: system.acc0_datapath: Receiving DMA response for node 6915, address 0x24071e0 with label b and size 32.
50116376501: system.acc0_datapath: Receiving DMA response for node 6915, address 0x2407200 with label b and size 32.
50116381501: system.acc0_datapath: Receiving DMA response for node 6915, address 0x2407220 with label b and size 32.
50116386501: system.acc0_datapath: Receiving DMA response for node 6915, address 0x2407240 with label b and size 32.
50116391501: system.acc0_datapath: Receiving DMA response for node 6915, address 0x2407260 with label b and size 32.
50116396501: system.acc0_datapath: Receiving DMA response for node 6915, address 0x2407280 with label b and size 32.
50116401501: system.acc0_datapath: Receiving DMA response for node 6915, address 0x24072a0 with label b and size 32.
50116406501: system.acc0_datapath: Receiving DMA response for node 6915, address 0x24072c0 with label b and size 32.
50116411501: system.acc0_datapath: Receiving DMA response for node 6915, address 0x24072e0 with label b and size 32.
50116416501: system.acc0_datapath: Receiving DMA response for node 6915, address 0x2407300 with label b and size 32.
50116421501: system.acc0_datapath: Receiving DMA response for node 6915, address 0x2407320 with label b and size 32.
50116426501: system.acc0_datapath: Receiving DMA response for node 6915, address 0x2407340 with label b and size 32.
50116431501: system.acc0_datapath: Receiving DMA response for node 6915, address 0x2407360 with label b and size 32.
50116436501: system.acc0_datapath: Receiving DMA response for node 6915, address 0x2407380 with label b and size 32.
50116441501: system.acc0_datapath: Receiving DMA response for node 6915, address 0x24073a0 with label b and size 32.
50116485001: system.acc0_datapath: Receiving DMA response for node 6915, address 0x24073c0 with label b and size 32.
50116490001: system.acc0_datapath: Receiving DMA response for node 6915, address 0x24073e0 with label b and size 32.
50116495001: system.acc0_datapath: Receiving DMA response for node 6915, address 0x2407400 with label b and size 32.
50116500001: system.acc0_datapath: Receiving DMA response for node 6915, address 0x2407420 with label b and size 32.
50116505001: system.acc0_datapath: Receiving DMA response for node 6915, address 0x2407440 with label b and size 32.
50116510001: system.acc0_datapath: Receiving DMA response for node 6915, address 0x2407460 with label b and size 32.
50116515001: system.acc0_datapath: Receiving DMA response for node 6915, address 0x2407480 with label b and size 32.
50116520001: system.acc0_datapath: Receiving DMA response for node 6915, address 0x24074a0 with label b and size 32.
50116525001: system.acc0_datapath: Receiving DMA response for node 6915, address 0x24074c0 with label b and size 32.
50116530001: system.acc0_datapath: Receiving DMA response for node 6915, address 0x24074e0 with label b and size 32.
50116535001: system.acc0_datapath: Receiving DMA response for node 6915, address 0x2407500 with label b and size 32.
50116540001: system.acc0_datapath: Receiving DMA response for node 6915, address 0x2407520 with label b and size 32.
50116545001: system.acc0_datapath: Receiving DMA response for node 6915, address 0x2407540 with label b and size 32.
50116550001: system.acc0_datapath: Receiving DMA response for node 6915, address 0x2407560 with label b and size 32.
50116555001: system.acc0_datapath: Receiving DMA response for node 6915, address 0x2407580 with label b and size 32.
50116560001: system.acc0_datapath: Receiving DMA response for node 6915, address 0x24075a0 with label b and size 32.
50116603501: system.acc0_datapath: Receiving DMA response for node 6915, address 0x24075c0 with label b and size 32.
50116608501: system.acc0_datapath: Receiving DMA response for node 6915, address 0x24075e0 with label b and size 32.
50116613501: system.acc0_datapath: Receiving DMA response for node 6915, address 0x2407600 with label b and size 32.
50116618501: system.acc0_datapath: Receiving DMA response for node 6915, address 0x2407620 with label b and size 32.
50116623501: system.acc0_datapath: Receiving DMA response for node 6915, address 0x2407640 with label b and size 32.
50116628501: system.acc0_datapath: Receiving DMA response for node 6915, address 0x2407660 with label b and size 32.
50116633501: system.acc0_datapath: Receiving DMA response for node 6915, address 0x2407680 with label b and size 32.
50116638501: system.acc0_datapath: Receiving DMA response for node 6915, address 0x24076a0 with label b and size 32.
50116638501: system.acc0_datapath: dmaCompleteCallback for node 6915.
50117024000: system.acc0_datapath: Scheduling DMA load operation with node id 9765 with delay 1536000
50118560000: system.acc0_datapath: Adding DMA node 9765 to DMA issue queue.
50118560000: system.acc0_datapath: issueDmaRequest: src_addr: 0x2425780, dst_addr: 0x24086c0, size: 4096
50118560000: system.acc0_datapath: DMA Accesses: array label b
50118560000: system.acc0_datapath: Increment the dmaLoad accesses of partition b with size 4096. 
50118631501: system.acc0_datapath: Receiving DMA response for node 9765, address 0x24086c0 with label b and size 32.
50118636501: system.acc0_datapath: Receiving DMA response for node 9765, address 0x24086e0 with label b and size 32.
50118641501: system.acc0_datapath: Receiving DMA response for node 9765, address 0x2408700 with label b and size 32.
50118646501: system.acc0_datapath: Receiving DMA response for node 9765, address 0x2408720 with label b and size 32.
50118651501: system.acc0_datapath: Receiving DMA response for node 9765, address 0x2408740 with label b and size 32.
50118656501: system.acc0_datapath: Receiving DMA response for node 9765, address 0x2408760 with label b and size 32.
50118661501: system.acc0_datapath: Receiving DMA response for node 9765, address 0x2408780 with label b and size 32.
50118666501: system.acc0_datapath: Receiving DMA response for node 9765, address 0x24087a0 with label b and size 32.
50118671501: system.acc0_datapath: Receiving DMA response for node 9765, address 0x24087c0 with label b and size 32.
50118676501: system.acc0_datapath: Receiving DMA response for node 9765, address 0x24087e0 with label b and size 32.
50118681501: system.acc0_datapath: Receiving DMA response for node 9765, address 0x2408800 with label b and size 32.
50118686501: system.acc0_datapath: Receiving DMA response for node 9765, address 0x2408820 with label b and size 32.
50118691501: system.acc0_datapath: Receiving DMA response for node 9765, address 0x2408840 with label b and size 32.
50118696501: system.acc0_datapath: Receiving DMA response for node 9765, address 0x2408860 with label b and size 32.
50118701501: system.acc0_datapath: Receiving DMA response for node 9765, address 0x2408880 with label b and size 32.
50118706501: system.acc0_datapath: Receiving DMA response for node 9765, address 0x24088a0 with label b and size 32.
50118711501: system.acc0_datapath: Receiving DMA response for node 9765, address 0x24088c0 with label b and size 32.
50118716501: system.acc0_datapath: Receiving DMA response for node 9765, address 0x24088e0 with label b and size 32.
50118721501: system.acc0_datapath: Receiving DMA response for node 9765, address 0x2408900 with label b and size 32.
50118726501: system.acc0_datapath: Receiving DMA response for node 9765, address 0x2408920 with label b and size 32.
50118731501: system.acc0_datapath: Receiving DMA response for node 9765, address 0x2408940 with label b and size 32.
50118736501: system.acc0_datapath: Receiving DMA response for node 9765, address 0x2408960 with label b and size 32.
50118741501: system.acc0_datapath: Receiving DMA response for node 9765, address 0x2408980 with label b and size 32.
50118746501: system.acc0_datapath: Receiving DMA response for node 9765, address 0x24089a0 with label b and size 32.
50118790001: system.acc0_datapath: Receiving DMA response for node 9765, address 0x24089c0 with label b and size 32.
50118795001: system.acc0_datapath: Receiving DMA response for node 9765, address 0x24089e0 with label b and size 32.
50118800001: system.acc0_datapath: Receiving DMA response for node 9765, address 0x2408a00 with label b and size 32.
50118805001: system.acc0_datapath: Receiving DMA response for node 9765, address 0x2408a20 with label b and size 32.
50118810001: system.acc0_datapath: Receiving DMA response for node 9765, address 0x2408a40 with label b and size 32.
50118815001: system.acc0_datapath: Receiving DMA response for node 9765, address 0x2408a60 with label b and size 32.
50118820001: system.acc0_datapath: Receiving DMA response for node 9765, address 0x2408a80 with label b and size 32.
50118825001: system.acc0_datapath: Receiving DMA response for node 9765, address 0x2408aa0 with label b and size 32.
50118830001: system.acc0_datapath: Receiving DMA response for node 9765, address 0x2408ac0 with label b and size 32.
50118835001: system.acc0_datapath: Receiving DMA response for node 9765, address 0x2408ae0 with label b and size 32.
50118840001: system.acc0_datapath: Receiving DMA response for node 9765, address 0x2408b00 with label b and size 32.
50118845001: system.acc0_datapath: Receiving DMA response for node 9765, address 0x2408b20 with label b and size 32.
50118850001: system.acc0_datapath: Receiving DMA response for node 9765, address 0x2408b40 with label b and size 32.
50118855001: system.acc0_datapath: Receiving DMA response for node 9765, address 0x2408b60 with label b and size 32.
50118860001: system.acc0_datapath: Receiving DMA response for node 9765, address 0x2408b80 with label b and size 32.
50118865001: system.acc0_datapath: Receiving DMA response for node 9765, address 0x2408ba0 with label b and size 32.
50118908501: system.acc0_datapath: Receiving DMA response for node 9765, address 0x2408bc0 with label b and size 32.
50118913501: system.acc0_datapath: Receiving DMA response for node 9765, address 0x2408be0 with label b and size 32.
50118918501: system.acc0_datapath: Receiving DMA response for node 9765, address 0x2408c00 with label b and size 32.
50118923501: system.acc0_datapath: Receiving DMA response for node 9765, address 0x2408c20 with label b and size 32.
50118928501: system.acc0_datapath: Receiving DMA response for node 9765, address 0x2408c40 with label b and size 32.
50118933501: system.acc0_datapath: Receiving DMA response for node 9765, address 0x2408c60 with label b and size 32.
50118938501: system.acc0_datapath: Receiving DMA response for node 9765, address 0x2408c80 with label b and size 32.
50118943501: system.acc0_datapath: Receiving DMA response for node 9765, address 0x2408ca0 with label b and size 32.
50118948501: system.acc0_datapath: Receiving DMA response for node 9765, address 0x2408cc0 with label b and size 32.
50118953501: system.acc0_datapath: Receiving DMA response for node 9765, address 0x2408ce0 with label b and size 32.
50118958501: system.acc0_datapath: Receiving DMA response for node 9765, address 0x2408d00 with label b and size 32.
50118963501: system.acc0_datapath: Receiving DMA response for node 9765, address 0x2408d20 with label b and size 32.
50118968501: system.acc0_datapath: Receiving DMA response for node 9765, address 0x2408d40 with label b and size 32.
50118973501: system.acc0_datapath: Receiving DMA response for node 9765, address 0x2408d60 with label b and size 32.
50118978501: system.acc0_datapath: Receiving DMA response for node 9765, address 0x2408d80 with label b and size 32.
50118983501: system.acc0_datapath: Receiving DMA response for node 9765, address 0x2408da0 with label b and size 32.
50119027001: system.acc0_datapath: Receiving DMA response for node 9765, address 0x2408dc0 with label b and size 32.
50119032001: system.acc0_datapath: Receiving DMA response for node 9765, address 0x2408de0 with label b and size 32.
50119037001: system.acc0_datapath: Receiving DMA response for node 9765, address 0x2408e00 with label b and size 32.
50119042001: system.acc0_datapath: Receiving DMA response for node 9765, address 0x2408e20 with label b and size 32.
50119047001: system.acc0_datapath: Receiving DMA response for node 9765, address 0x2408e40 with label b and size 32.
50119052001: system.acc0_datapath: Receiving DMA response for node 9765, address 0x2408e60 with label b and size 32.
50119057001: system.acc0_datapath: Receiving DMA response for node 9765, address 0x2408e80 with label b and size 32.
50119062001: system.acc0_datapath: Receiving DMA response for node 9765, address 0x2408ea0 with label b and size 32.
50119067001: system.acc0_datapath: Receiving DMA response for node 9765, address 0x2408ec0 with label b and size 32.
50119072001: system.acc0_datapath: Receiving DMA response for node 9765, address 0x2408ee0 with label b and size 32.
50119077001: system.acc0_datapath: Receiving DMA response for node 9765, address 0x2408f00 with label b and size 32.
50119082001: system.acc0_datapath: Receiving DMA response for node 9765, address 0x2408f20 with label b and size 32.
50119087001: system.acc0_datapath: Receiving DMA response for node 9765, address 0x2408f40 with label b and size 32.
50119092001: system.acc0_datapath: Receiving DMA response for node 9765, address 0x2408f60 with label b and size 32.
50119097001: system.acc0_datapath: Receiving DMA response for node 9765, address 0x2408f80 with label b and size 32.
50119102001: system.acc0_datapath: Receiving DMA response for node 9765, address 0x2408fa0 with label b and size 32.
50119145501: system.acc0_datapath: Receiving DMA response for node 9765, address 0x2408fc0 with label b and size 32.
50119150501: system.acc0_datapath: Receiving DMA response for node 9765, address 0x2408fe0 with label b and size 32.
50119155501: system.acc0_datapath: Receiving DMA response for node 9765, address 0x2409000 with label b and size 32.
50119160501: system.acc0_datapath: Receiving DMA response for node 9765, address 0x2409020 with label b and size 32.
50119165501: system.acc0_datapath: Receiving DMA response for node 9765, address 0x2409040 with label b and size 32.
50119170501: system.acc0_datapath: Receiving DMA response for node 9765, address 0x2409060 with label b and size 32.
50119175501: system.acc0_datapath: Receiving DMA response for node 9765, address 0x2409080 with label b and size 32.
50119180501: system.acc0_datapath: Receiving DMA response for node 9765, address 0x24090a0 with label b and size 32.
50119185501: system.acc0_datapath: Receiving DMA response for node 9765, address 0x24090c0 with label b and size 32.
50119190501: system.acc0_datapath: Receiving DMA response for node 9765, address 0x24090e0 with label b and size 32.
50119195501: system.acc0_datapath: Receiving DMA response for node 9765, address 0x2409100 with label b and size 32.
50119200501: system.acc0_datapath: Receiving DMA response for node 9765, address 0x2409120 with label b and size 32.
50119205501: system.acc0_datapath: Receiving DMA response for node 9765, address 0x2409140 with label b and size 32.
50119210501: system.acc0_datapath: Receiving DMA response for node 9765, address 0x2409160 with label b and size 32.
50119215501: system.acc0_datapath: Receiving DMA response for node 9765, address 0x2409180 with label b and size 32.
50119220501: system.acc0_datapath: Receiving DMA response for node 9765, address 0x24091a0 with label b and size 32.
50119264001: system.acc0_datapath: Receiving DMA response for node 9765, address 0x24091c0 with label b and size 32.
50119269001: system.acc0_datapath: Receiving DMA response for node 9765, address 0x24091e0 with label b and size 32.
50119274001: system.acc0_datapath: Receiving DMA response for node 9765, address 0x2409200 with label b and size 32.
50119279001: system.acc0_datapath: Receiving DMA response for node 9765, address 0x2409220 with label b and size 32.
50119284001: system.acc0_datapath: Receiving DMA response for node 9765, address 0x2409240 with label b and size 32.
50119289001: system.acc0_datapath: Receiving DMA response for node 9765, address 0x2409260 with label b and size 32.
50119294001: system.acc0_datapath: Receiving DMA response for node 9765, address 0x2409280 with label b and size 32.
50119299001: system.acc0_datapath: Receiving DMA response for node 9765, address 0x24092a0 with label b and size 32.
50119304001: system.acc0_datapath: Receiving DMA response for node 9765, address 0x24092c0 with label b and size 32.
50119309001: system.acc0_datapath: Receiving DMA response for node 9765, address 0x24092e0 with label b and size 32.
50119314001: system.acc0_datapath: Receiving DMA response for node 9765, address 0x2409300 with label b and size 32.
50119319001: system.acc0_datapath: Receiving DMA response for node 9765, address 0x2409320 with label b and size 32.
50119324001: system.acc0_datapath: Receiving DMA response for node 9765, address 0x2409340 with label b and size 32.
50119329001: system.acc0_datapath: Receiving DMA response for node 9765, address 0x2409360 with label b and size 32.
50119334001: system.acc0_datapath: Receiving DMA response for node 9765, address 0x2409380 with label b and size 32.
50119339001: system.acc0_datapath: Receiving DMA response for node 9765, address 0x24093a0 with label b and size 32.
50119382501: system.acc0_datapath: Receiving DMA response for node 9765, address 0x24093c0 with label b and size 32.
50119387501: system.acc0_datapath: Receiving DMA response for node 9765, address 0x24093e0 with label b and size 32.
50119392501: system.acc0_datapath: Receiving DMA response for node 9765, address 0x2409400 with label b and size 32.
50119397501: system.acc0_datapath: Receiving DMA response for node 9765, address 0x2409420 with label b and size 32.
50119402501: system.acc0_datapath: Receiving DMA response for node 9765, address 0x2409440 with label b and size 32.
50119407501: system.acc0_datapath: Receiving DMA response for node 9765, address 0x2409460 with label b and size 32.
50119412501: system.acc0_datapath: Receiving DMA response for node 9765, address 0x2409480 with label b and size 32.
50119417501: system.acc0_datapath: Receiving DMA response for node 9765, address 0x24094a0 with label b and size 32.
50119422501: system.acc0_datapath: Receiving DMA response for node 9765, address 0x24094c0 with label b and size 32.
50119427501: system.acc0_datapath: Receiving DMA response for node 9765, address 0x24094e0 with label b and size 32.
50119432501: system.acc0_datapath: Receiving DMA response for node 9765, address 0x2409500 with label b and size 32.
50119437501: system.acc0_datapath: Receiving DMA response for node 9765, address 0x2409520 with label b and size 32.
50119442501: system.acc0_datapath: Receiving DMA response for node 9765, address 0x2409540 with label b and size 32.
50119447501: system.acc0_datapath: Receiving DMA response for node 9765, address 0x2409560 with label b and size 32.
50119452501: system.acc0_datapath: Receiving DMA response for node 9765, address 0x2409580 with label b and size 32.
50119457501: system.acc0_datapath: Receiving DMA response for node 9765, address 0x24095a0 with label b and size 32.
50119501001: system.acc0_datapath: Receiving DMA response for node 9765, address 0x24095c0 with label b and size 32.
50119506001: system.acc0_datapath: Receiving DMA response for node 9765, address 0x24095e0 with label b and size 32.
50119511001: system.acc0_datapath: Receiving DMA response for node 9765, address 0x2409600 with label b and size 32.
50119516001: system.acc0_datapath: Receiving DMA response for node 9765, address 0x2409620 with label b and size 32.
50119521001: system.acc0_datapath: Receiving DMA response for node 9765, address 0x2409640 with label b and size 32.
50119526001: system.acc0_datapath: Receiving DMA response for node 9765, address 0x2409660 with label b and size 32.
50119531001: system.acc0_datapath: Receiving DMA response for node 9765, address 0x2409680 with label b and size 32.
50119536001: system.acc0_datapath: Receiving DMA response for node 9765, address 0x24096a0 with label b and size 32.
50119536001: system.acc0_datapath: dmaCompleteCallback for node 9765.
50119922000: system.acc0_datapath: Scheduling DMA load operation with node id 12615 with delay 1536000
50121458000: system.acc0_datapath: Adding DMA node 12615 to DMA issue queue.
50121458000: system.acc0_datapath: issueDmaRequest: src_addr: 0x2426780, dst_addr: 0x240a6c0, size: 4096
50121458000: system.acc0_datapath: DMA Accesses: array label b
50121458000: system.acc0_datapath: Increment the dmaLoad accesses of partition b with size 4096. 
50121529501: system.acc0_datapath: Receiving DMA response for node 12615, address 0x240a6c0 with label b and size 32.
50121534501: system.acc0_datapath: Receiving DMA response for node 12615, address 0x240a6e0 with label b and size 32.
50121539501: system.acc0_datapath: Receiving DMA response for node 12615, address 0x240a700 with label b and size 32.
50121544501: system.acc0_datapath: Receiving DMA response for node 12615, address 0x240a720 with label b and size 32.
50121549501: system.acc0_datapath: Receiving DMA response for node 12615, address 0x240a740 with label b and size 32.
50121554501: system.acc0_datapath: Receiving DMA response for node 12615, address 0x240a760 with label b and size 32.
50121559501: system.acc0_datapath: Receiving DMA response for node 12615, address 0x240a780 with label b and size 32.
50121564501: system.acc0_datapath: Receiving DMA response for node 12615, address 0x240a7a0 with label b and size 32.
[...]
50698298501: system.acc0_datapath: Receiving DMA response for node 489, address 0x24027e0 with label b and size 32.
50698303501: system.acc0_datapath: Receiving DMA response for node 489, address 0x2402800 with label b and size 32.
50698308501: system.acc0_datapath: Receiving DMA response for node 489, address 0x2402820 with label b and size 32.
50698313501: system.acc0_datapath: Receiving DMA response for node 489, address 0x2402840 with label b and size 32.
50698318501: system.acc0_datapath: Receiving DMA response for node 489, address 0x2402860 with label b and size 32.
50698323501: system.acc0_datapath: Receiving DMA response for node 489, address 0x2402880 with label b and size 32.
50698328501: system.acc0_datapath: Receiving DMA response for node 489, address 0x24028a0 with label b and size 32.
50698372001: system.acc0_datapath: Receiving DMA response for node 489, address 0x24028c0 with label b and size 32.
50698377001: system.acc0_datapath: Receiving DMA response for node 489, address 0x24028e0 with label b and size 32.
50698382001: system.acc0_datapath: Receiving DMA response for node 489, address 0x2402900 with label b and size 32.
50698387001: system.acc0_datapath: Receiving DMA response for node 489, address 0x2402920 with label b and size 32.
50698392001: system.acc0_datapath: Receiving DMA response for node 489, address 0x2402940 with label b and size 32.
50698397001: system.acc0_datapath: Receiving DMA response for node 489, address 0x2402960 with label b and size 32.
50698402001: system.acc0_datapath: Receiving DMA response for node 489, address 0x2402980 with label b and size 32.
50698407001: system.acc0_datapath: Receiving DMA response for node 489, address 0x24029a0 with label b and size 32.
50698412001: system.acc0_datapath: Receiving DMA response for node 489, address 0x24029c0 with label b and size 32.
50698417001: system.acc0_datapath: Receiving DMA response for node 489, address 0x24029e0 with label b and size 32.
50698422001: system.acc0_datapath: Receiving DMA response for node 489, address 0x2402a00 with label b and size 32.
50698427001: system.acc0_datapath: Receiving DMA response for node 489, address 0x2402a20 with label b and size 32.
50698432001: system.acc0_datapath: Receiving DMA response for node 489, address 0x2402a40 with label b and size 32.
50698437001: system.acc0_datapath: Receiving DMA response for node 489, address 0x2402a60 with label b and size 32.
50698442001: system.acc0_datapath: Receiving DMA response for node 489, address 0x2402a80 with label b and size 32.
50698447001: system.acc0_datapath: Receiving DMA response for node 489, address 0x2402aa0 with label b and size 32.
50698490501: system.acc0_datapath: Receiving DMA response for node 489, address 0x2402ac0 with label b and size 32.
50698495501: system.acc0_datapath: Receiving DMA response for node 489, address 0x2402ae0 with label b and size 32.
50698500501: system.acc0_datapath: Receiving DMA response for node 489, address 0x2402b00 with label b and size 32.
50698505501: system.acc0_datapath: Receiving DMA response for node 489, address 0x2402b20 with label b and size 32.
50698510501: system.acc0_datapath: Receiving DMA response for node 489, address 0x2402b40 with label b and size 32.
50698515501: system.acc0_datapath: Receiving DMA response for node 489, address 0x2402b60 with label b and size 32.
50698520501: system.acc0_datapath: Receiving DMA response for node 489, address 0x2402b80 with label b and size 32.
50698525501: system.acc0_datapath: Receiving DMA response for node 489, address 0x2402ba0 with label b and size 32.
50698530501: system.acc0_datapath: Receiving DMA response for node 489, address 0x2402bc0 with label b and size 32.
50698535501: system.acc0_datapath: Receiving DMA response for node 489, address 0x2402be0 with label b and size 32.
50698540501: system.acc0_datapath: Receiving DMA response for node 489, address 0x2402c00 with label b and size 32.
50698545501: system.acc0_datapath: Receiving DMA response for node 489, address 0x2402c20 with label b and size 32.
50698550501: system.acc0_datapath: Receiving DMA response for node 489, address 0x2402c40 with label b and size 32.
50698555501: system.acc0_datapath: Receiving DMA response for node 489, address 0x2402c60 with label b and size 32.
50698560501: system.acc0_datapath: Receiving DMA response for node 489, address 0x2402c80 with label b and size 32.
50698565501: system.acc0_datapath: Receiving DMA response for node 489, address 0x2402ca0 with label b and size 32.
50698609001: system.acc0_datapath: Receiving DMA response for node 489, address 0x2402cc0 with label b and size 32.
50698614001: system.acc0_datapath: Receiving DMA response for node 489, address 0x2402ce0 with label b and size 32.
50698619001: system.acc0_datapath: Receiving DMA response for node 489, address 0x2402d00 with label b and size 32.
50698624001: system.acc0_datapath: Receiving DMA response for node 489, address 0x2402d20 with label b and size 32.
50698629001: system.acc0_datapath: Receiving DMA response for node 489, address 0x2402d40 with label b and size 32.
50698634001: system.acc0_datapath: Receiving DMA response for node 489, address 0x2402d60 with label b and size 32.
50698639001: system.acc0_datapath: Receiving DMA response for node 489, address 0x2402d80 with label b and size 32.
50698644001: system.acc0_datapath: Receiving DMA response for node 489, address 0x2402da0 with label b and size 32.
50698649001: system.acc0_datapath: Receiving DMA response for node 489, address 0x2402dc0 with label b and size 32.
50698654001: system.acc0_datapath: Receiving DMA response for node 489, address 0x2402de0 with label b and size 32.
50698659001: system.acc0_datapath: Receiving DMA response for node 489, address 0x2402e00 with label b and size 32.
50698664001: system.acc0_datapath: Receiving DMA response for node 489, address 0x2402e20 with label b and size 32.
50698669001: system.acc0_datapath: Receiving DMA response for node 489, address 0x2402e40 with label b and size 32.
50698674001: system.acc0_datapath: Receiving DMA response for node 489, address 0x2402e60 with label b and size 32.
50698679001: system.acc0_datapath: Receiving DMA response for node 489, address 0x2402e80 with label b and size 32.
50698684001: system.acc0_datapath: Receiving DMA response for node 489, address 0x2402ea0 with label b and size 32.
50698727501: system.acc0_datapath: Receiving DMA response for node 489, address 0x2402ec0 with label b and size 32.
50698732501: system.acc0_datapath: Receiving DMA response for node 489, address 0x2402ee0 with label b and size 32.
50698737501: system.acc0_datapath: Receiving DMA response for node 489, address 0x2402f00 with label b and size 32.
50698742501: system.acc0_datapath: Receiving DMA response for node 489, address 0x2402f20 with label b and size 32.
50698747501: system.acc0_datapath: Receiving DMA response for node 489, address 0x2402f40 with label b and size 32.
50698752501: system.acc0_datapath: Receiving DMA response for node 489, address 0x2402f60 with label b and size 32.
50698757501: system.acc0_datapath: Receiving DMA response for node 489, address 0x2402f80 with label b and size 32.
50698762501: system.acc0_datapath: Receiving DMA response for node 489, address 0x2402fa0 with label b and size 32.
50698767501: system.acc0_datapath: Receiving DMA response for node 489, address 0x2402fc0 with label b and size 32.
50698772501: system.acc0_datapath: Receiving DMA response for node 489, address 0x2402fe0 with label b and size 32.
50698777501: system.acc0_datapath: Receiving DMA response for node 489, address 0x2403000 with label b and size 32.
50698782501: system.acc0_datapath: Receiving DMA response for node 489, address 0x2403020 with label b and size 32.
50698787501: system.acc0_datapath: Receiving DMA response for node 489, address 0x2403040 with label b and size 32.
50698792501: system.acc0_datapath: Receiving DMA response for node 489, address 0x2403060 with label b and size 32.
50698797501: system.acc0_datapath: Receiving DMA response for node 489, address 0x2403080 with label b and size 32.
50698802501: system.acc0_datapath: Receiving DMA response for node 489, address 0x24030a0 with label b and size 32.
50698846001: system.acc0_datapath: Receiving DMA response for node 489, address 0x24030c0 with label b and size 32.
50698851001: system.acc0_datapath: Receiving DMA response for node 489, address 0x24030e0 with label b and size 32.
50698856001: system.acc0_datapath: Receiving DMA response for node 489, address 0x2403100 with label b and size 32.
50698861001: system.acc0_datapath: Receiving DMA response for node 489, address 0x2403120 with label b and size 32.
50698866001: system.acc0_datapath: Receiving DMA response for node 489, address 0x2403140 with label b and size 32.
50698871001: system.acc0_datapath: Receiving DMA response for node 489, address 0x2403160 with label b and size 32.
50698876001: system.acc0_datapath: Receiving DMA response for node 489, address 0x2403180 with label b and size 32.
50698881001: system.acc0_datapath: Receiving DMA response for node 489, address 0x24031a0 with label b and size 32.
50698886001: system.acc0_datapath: Receiving DMA response for node 489, address 0x24031c0 with label b and size 32.
50698891001: system.acc0_datapath: Receiving DMA response for node 489, address 0x24031e0 with label b and size 32.
50698896001: system.acc0_datapath: Receiving DMA response for node 489, address 0x2403200 with label b and size 32.
50698901001: system.acc0_datapath: Receiving DMA response for node 489, address 0x2403220 with label b and size 32.
50698906001: system.acc0_datapath: Receiving DMA response for node 489, address 0x2403240 with label b and size 32.
50698911001: system.acc0_datapath: Receiving DMA response for node 489, address 0x2403260 with label b and size 32.
50698916001: system.acc0_datapath: Receiving DMA response for node 489, address 0x2403280 with label b and size 32.
50698921001: system.acc0_datapath: Receiving DMA response for node 489, address 0x24032a0 with label b and size 32.
50698964501: system.acc0_datapath: Receiving DMA response for node 489, address 0x24032c0 with label b and size 32.
50698969501: system.acc0_datapath: Receiving DMA response for node 489, address 0x24032e0 with label b and size 32.
50698974501: system.acc0_datapath: Receiving DMA response for node 489, address 0x2403300 with label b and size 32.
50698979501: system.acc0_datapath: Receiving DMA response for node 489, address 0x2403320 with label b and size 32.
50698984501: system.acc0_datapath: Receiving DMA response for node 489, address 0x2403340 with label b and size 32.
50698989501: system.acc0_datapath: Receiving DMA response for node 489, address 0x2403360 with label b and size 32.
50698994501: system.acc0_datapath: Receiving DMA response for node 489, address 0x2403380 with label b and size 32.
50698999501: system.acc0_datapath: Receiving DMA response for node 489, address 0x24033a0 with label b and size 32.
50699004501: system.acc0_datapath: Receiving DMA response for node 489, address 0x24033c0 with label b and size 32.
50699009501: system.acc0_datapath: Receiving DMA response for node 489, address 0x24033e0 with label b and size 32.
50699014501: system.acc0_datapath: Receiving DMA response for node 489, address 0x2403400 with label b and size 32.
50699019501: system.acc0_datapath: Receiving DMA response for node 489, address 0x2403420 with label b and size 32.
50699024501: system.acc0_datapath: Receiving DMA response for node 489, address 0x2403440 with label b and size 32.
50699029501: system.acc0_datapath: Receiving DMA response for node 489, address 0x2403460 with label b and size 32.
50699034501: system.acc0_datapath: Receiving DMA response for node 489, address 0x2403480 with label b and size 32.
50699039501: system.acc0_datapath: Receiving DMA response for node 489, address 0x24034a0 with label b and size 32.
50699083001: system.acc0_datapath: Receiving DMA response for node 489, address 0x24034c0 with label b and size 32.
50699088001: system.acc0_datapath: Receiving DMA response for node 489, address 0x24034e0 with label b and size 32.
50699093001: system.acc0_datapath: Receiving DMA response for node 489, address 0x2403500 with label b and size 32.
50699098001: system.acc0_datapath: Receiving DMA response for node 489, address 0x2403520 with label b and size 32.
50699103001: system.acc0_datapath: Receiving DMA response for node 489, address 0x2403540 with label b and size 32.
50699108001: system.acc0_datapath: Receiving DMA response for node 489, address 0x2403560 with label b and size 32.
50699113001: system.acc0_datapath: Receiving DMA response for node 489, address 0x2403580 with label b and size 32.
50699118001: system.acc0_datapath: Receiving DMA response for node 489, address 0x24035a0 with label b and size 32.
50699123001: system.acc0_datapath: Receiving DMA response for node 489, address 0x24035c0 with label b and size 32.
50699128001: system.acc0_datapath: Receiving DMA response for node 489, address 0x24035e0 with label b and size 32.
50699133001: system.acc0_datapath: Receiving DMA response for node 489, address 0x2403600 with label b and size 32.
50699138001: system.acc0_datapath: Receiving DMA response for node 489, address 0x2403620 with label b and size 32.
50699143001: system.acc0_datapath: Receiving DMA response for node 489, address 0x2403640 with label b and size 32.
50699148001: system.acc0_datapath: Receiving DMA response for node 489, address 0x2403660 with label b and size 32.
50699153001: system.acc0_datapath: Receiving DMA response for node 489, address 0x2403680 with label b and size 32.
50699158001: system.acc0_datapath: Receiving DMA response for node 489, address 0x24036a0 with label b and size 32.
50699158001: system.acc0_datapath: dmaCompleteCallback for node 489.
50699544000: system.acc0_datapath: Scheduling DMA load operation with node id 3339 with delay 384000
50699928000: system.acc0_datapath: Adding DMA node 3339 to DMA issue queue.
50699928000: system.acc0_datapath: issueDmaRequest: src_addr: 0x23e78a0, dst_addr: 0x24046c0, size: 1024
50699928000: system.acc0_datapath: DMA Accesses: array label b
50699928000: system.acc0_datapath: Increment the dmaLoad accesses of partition b with size 1024. 
50699981501: system.acc0_datapath: Receiving DMA response for node 3339, address 0x24046c0 with label b and size 32.
50699986501: system.acc0_datapath: Receiving DMA response for node 3339, address 0x24046e0 with label b and size 32.
50699991501: system.acc0_datapath: Receiving DMA response for node 3339, address 0x2404700 with label b and size 32.
50699996501: system.acc0_datapath: Receiving DMA response for node 3339, address 0x2404720 with label b and size 32.
50700001501: system.acc0_datapath: Receiving DMA response for node 3339, address 0x2404740 with label b and size 32.
50700006501: system.acc0_datapath: Receiving DMA response for node 3339, address 0x2404760 with label b and size 32.
50700011501: system.acc0_datapath: Receiving DMA response for node 3339, address 0x2404780 with label b and size 32.
50700016501: system.acc0_datapath: Receiving DMA response for node 3339, address 0x24047a0 with label b and size 32.
50700021501: system.acc0_datapath: Receiving DMA response for node 3339, address 0x24047c0 with label b and size 32.
50700026501: system.acc0_datapath: Receiving DMA response for node 3339, address 0x24047e0 with label b and size 32.
50700031501: system.acc0_datapath: Receiving DMA response for node 3339, address 0x2404800 with label b and size 32.
50700036501: system.acc0_datapath: Receiving DMA response for node 3339, address 0x2404820 with label b and size 32.
50700041501: system.acc0_datapath: Receiving DMA response for node 3339, address 0x2404840 with label b and size 32.
50700046501: system.acc0_datapath: Receiving DMA response for node 3339, address 0x2404860 with label b and size 32.
50700051501: system.acc0_datapath: Receiving DMA response for node 3339, address 0x2404880 with label b and size 32.
50700095001: system.acc0_datapath: Receiving DMA response for node 3339, address 0x24048a0 with label b and size 32.
50700100001: system.acc0_datapath: Receiving DMA response for node 3339, address 0x24048c0 with label b and size 32.
50700105001: system.acc0_datapath: Receiving DMA response for node 3339, address 0x24048e0 with label b and size 32.
50700110001: system.acc0_datapath: Receiving DMA response for node 3339, address 0x2404900 with label b and size 32.
50700115001: system.acc0_datapath: Receiving DMA response for node 3339, address 0x2404920 with label b and size 32.
50700120001: system.acc0_datapath: Receiving DMA response for node 3339, address 0x2404940 with label b and size 32.
50700125001: system.acc0_datapath: Receiving DMA response for node 3339, address 0x2404960 with label b and size 32.
50700130001: system.acc0_datapath: Receiving DMA response for node 3339, address 0x2404980 with label b and size 32.
50700135001: system.acc0_datapath: Receiving DMA response for node 3339, address 0x24049a0 with label b and size 32.
50700140001: system.acc0_datapath: Receiving DMA response for node 3339, address 0x24049c0 with label b and size 32.
50700145001: system.acc0_datapath: Receiving DMA response for node 3339, address 0x24049e0 with label b and size 32.
50700150001: system.acc0_datapath: Receiving DMA response for node 3339, address 0x2404a00 with label b and size 32.
50700155001: system.acc0_datapath: Receiving DMA response for node 3339, address 0x2404a20 with label b and size 32.
50700160001: system.acc0_datapath: Receiving DMA response for node 3339, address 0x2404a40 with label b and size 32.
50700165001: system.acc0_datapath: Receiving DMA response for node 3339, address 0x2404a60 with label b and size 32.
50700170001: system.acc0_datapath: Receiving DMA response for node 3339, address 0x2404a80 with label b and size 32.
50700213501: system.acc0_datapath: Receiving DMA response for node 3339, address 0x2404aa0 with label b and size 32.
50700213501: system.acc0_datapath: dmaCompleteCallback for node 3339.
50700684000: system.acc0_datapath: Scheduling DMA store operation with node id 32436 with delay 12000
50700696000: system.acc0_datapath: Adding DMA node 32436 to DMA issue queue.
50700696000: system.acc0_datapath: issueDmaRequest: src_addr: 0x2412720, dst_addr: 0x23e8200, size: 32
50700696000: system.acc0_datapath: DMA Accesses: array label results
50700696000: system.acc0_datapath: Increment the dmaStore accesses of partition results with size 32. 
50700789001: system.acc0_datapath: Receiving DMA response for node 32436, address 0x2412720 with label results and size 32.
50700789001: system.acc0_datapath: dmaCompleteCallback for node 32436.
===============================
        Aladdin Results        
===============================
Running : ./outputs/nnet_fwd
Top level function: smv_matrix_multiply_transpose_nc_vec_fxp
Cycle : 4507 cycles
Upsampled Cycle : 0 cycles
Avg Power: 274.747 mW
Idle FU Cycles: 3603 cycles
Avg FU Power: 5.94025 mW
Avg FU Dynamic Power: 2.67102 mW
Avg FU leakage Power: 3.26923 mW
Avg MEM Power: 268.807 mW
Avg MEM Dynamic Power: 249.896 mW
Avg MEM Leakage Power: 18.911 mW
Total Area: 1.41957e+06 uM^2
FU Area: 279686 uM^2
MEM Area: 1.13989e+06 uM^2
Num of Multipliers (32-bit): 10
Num of Adders (32-bit): 132
Num of Bit-wise Operators (32-bit): 35
Num of Shifters (32-bit): 18
Num of Registers (32-bit): 112
===============================
        Aladdin Results        
===============================
50700791000: system.acc0_datapath: Accelerator completed.
50700791000: system.acc0_datapath: Elapsed host seconds 0.50.
50700791000: system.acc0_datapath: Sent finished signal.
50700803001: system.acc0_datapath: cacheRespCallback for control signal access: 0x1a8bc10
50700805000: system.acc0_datapath: Woken up the CPU thread context.
Exiting @ tick 50894102000 because exiting with last active thread context
