gem5 Simulator System.  http://gem5.org
gem5 is copyrighted software; use the --copyright option for details.

gem5 compiled Sep  7 2022 07:15:41
gem5 started Sep 21 2022 18:03:14
gem5 executing on 26b29dfa715a, pid 525
command line: /workspace/gem5-aladdin/src/aladdin/../../build/X86/gem5.opt --debug-flags=Aladdin,HybridDatapath --outdir=/workspace/smaug/experiments/sims/smv/tests/minerva/outputs --stats-db-file=stats.db /workspace/gem5-aladdin/src/aladdin/../../configs/aladdin/aladdin_se.py --num-cpus=1 --mem-size=4GB --mem-type=LPDDR4_3200_2x16 --sys-clock=1.25GHz --cpu-clock=2.5GHz --cpu-type=DerivO3CPU --ruby --access-backing-store --l2_size=2097152 --l2_assoc=16 --cacheline_size=32 --accel_cfg_file=gem5.cfg --fast-forward=10000000000 -c /workspace/smaug/experiments/../build/bin/smaug -o '/workspace/smaug/experiments/models/minerva/minerva_smv_topo.pbtxt /workspace/smaug/experiments/models/minerva/minerva_smv_params.pb --sample-level=high --gem5 --debug-level=0 --num-accels=1'

Global frequency set at 1000000000000 ticks per second
-------------------------------
      Setting ScratchPad       
-------------------------------
      0: system: Registered accelerator 3
      0: system.acc0_datapath: Registering stats.
Switch at instruction count:10000000000
Model topology file: /workspace/smaug/experiments/models/minerva/minerva_smv_topo.pbtxt
Model parameters file: /workspace/smaug/experiments/models/minerva/minerva_smv_params.pb
Sampling level: high, number of sample iterations: 1
Number of accelerators: 1
======================================================
      Loading the network model...
======================================================
Adding data (Data).
Adding reorder (Reorder).
Adding data_1 (Data).
Adding mat_mul (InnerProduct).
Adding data_2 (Data).
Adding mat_mul_1 (InnerProduct).
Adding data_3 (Data).
Adding mat_mul_2 (InnerProduct).
Adding data_4 (Data).
Adding mat_mul_3 (InnerProduct).
======================================================
      Summary of the network.
======================================================
____________________________________________________________________________________________
Layer (type)                             Output shape                 Parameters  
____________________________________________________________________________________________
data_4 (Data)                            (10, 256)                        0       
____________________________________________________________________________________________
data_3 (Data)                            (256, 256)                       0       
____________________________________________________________________________________________
data_2 (Data)                            (256, 256)                       0       
____________________________________________________________________________________________
data_1 (Data)                            (256, 784)                       0       
____________________________________________________________________________________________
data (Data)                              (1, 28, 28, 1)                   0       
____________________________________________________________________________________________
reorder (Reorder)                        (1, 784)                         0       
____________________________________________________________________________________________
mat_mul (InnerProduct)                   (1, 256)                       200704    
____________________________________________________________________________________________
mat_mul_1 (InnerProduct)                 (1, 256)                       65536     
____________________________________________________________________________________________
mat_mul_2 (InnerProduct)                 (1, 256)                       65536     
____________________________________________________________________________________________
mat_mul_3 (InnerProduct)                 (1, 10)                         2560     
____________________________________________________________________________________________
======================================================
      Tiling operators of the network...
======================================================
Tiling data (Data).
Tiling data_1 (Data).
Tiling data_2 (Data).
Tiling data_3 (Data).
Tiling data_4 (Data).
Tiling mat_mul (InnerProduct).
Tiling mat_mul_1 (InnerProduct).
Tiling mat_mul_2 (InnerProduct).
Tiling mat_mul_3 (InnerProduct).
Tiling reorder (Reorder).
Switched CPUS @ tick 39994325600
switching cpus
**** REAL SIMULATION ****
======================================================
      Scheduling operators of the network...
======================================================
Scheduling data (Data).
Scheduling data_1 (Data).
Scheduling data_2 (Data).
Scheduling data_3 (Data).
Scheduling data_4 (Data).
Scheduling reorder (Reorder).
Scheduling mat_mul (InnerProduct).
40092429600: system.acc0_datapath: Setting host_a to memory type dma.
40092535200: system.acc0_datapath: Setting host_b to memory type dma.
40092568000: system.acc0_datapath: Setting host_results to memory type dma.
40097988000: system.acc0_datapath: Inserting array label mapping host_results -> vpn 0x3739a0, size 512.
40097988000: system.acc0_datapath: Mapping vaddr 0x3739a0 -> paddr 0x1a839a0.
40097988000: system.acc0_datapath: Inserting TLB entry vpn 0x373000 -> ppn 0x1a83000.
40100762400: system.acc0_datapath: Inserting array label mapping host_a -> vpn 0x3ab020, size 1568.
40100762400: system.acc0_datapath: Mapping vaddr 0x3ab020 -> paddr 0x1abb020.
40100762400: system.acc0_datapath: Inserting TLB entry vpn 0x3ab000 -> ppn 0x1abb000.
40102341600: system.acc0_datapath: Inserting array label mapping host_b -> vpn 0x3e4f00, size 25088.
40102341600: system.acc0_datapath: Mapping vaddr 0x3e4f00 -> paddr 0x1bd7f00.
40102341600: system.acc0_datapath: Inserting TLB entry vpn 0x3e4000 -> ppn 0x1bd7000.
40102341600: system.acc0_datapath: Mapping vaddr 0x3e5f00 -> paddr 0x1bd8f00.
40102341600: system.acc0_datapath: Inserting TLB entry vpn 0x3e5000 -> ppn 0x1bd8000.
40102341600: system.acc0_datapath: Mapping vaddr 0x3e6f00 -> paddr 0x1bd9f00.
40102341600: system.acc0_datapath: Inserting TLB entry vpn 0x3e6000 -> ppn 0x1bd9000.
40102341600: system.acc0_datapath: Mapping vaddr 0x3e7f00 -> paddr 0x1bdaf00.
40102341600: system.acc0_datapath: Inserting TLB entry vpn 0x3e7000 -> ppn 0x1bda000.
40102341600: system.acc0_datapath: Mapping vaddr 0x3e8f00 -> paddr 0x1bdbf00.
40102341600: system.acc0_datapath: Inserting TLB entry vpn 0x3e8000 -> ppn 0x1bdb000.
40102341600: system.acc0_datapath: Mapping vaddr 0x3e9f00 -> paddr 0x1bdcf00.
40102341600: system.acc0_datapath: Inserting TLB entry vpn 0x3e9000 -> ppn 0x1bdc000.
40102341600: system.acc0_datapath: Mapping vaddr 0x3eaf00 -> paddr 0x1bddf00.
40102341600: system.acc0_datapath: Inserting TLB entry vpn 0x3ea000 -> ppn 0x1bdd000.
40102341600: system.acc0_datapath: Mapping vaddr 0x3ebf00 -> paddr 0x1bdef00.
40102341600: system.acc0_datapath: Inserting TLB entry vpn 0x3eb000 -> ppn 0x1bde000.
40103587200: system.acc0_datapath: Activating accelerator id 3
-------------------------------
      Generating DDDG          
-------------------------------
-------------------------------
Num of Nodes: 108612
Num of Edges: 267422
Num of Reg Edges: 143957
Num of MEM Edges: 14860
Num of Control Edges: 108611
-------------------------------
-------------------------------
    Initializing BaseDatapath      
-------------------------------
 Top level: smv_matrix_multiply_transpose_nc_vec_fxp
=============================================
      Optimizing...            ./outputs/nnet_fwd
=============================================
-------------------------------
  Remove PHI and Convert Nodes 
-------------------------------
  Removing 88444 edges.
  Adding 60323 new edges.
  Removing 951 isolated nodes.
-------------------------------
  Remove Induction Dependence  
-------------------------------
-------------------------------
       Init Base Address       
-------------------------------
-------------------------------
     Init DMA Base Address     
-------------------------------
-------------------------------
        Mem to Reg Conv        
-------------------------------
-------------------------------
      ScratchPad Partition     
-------------------------------
-------------------------------
         Loop Flatten          
-------------------------------
  Removing 10750 isolated nodes.
  Removing 0 isolated nodes.
-------------------------------
         Loop Unrolling        
-------------------------------
  Adding 177114 new edges.
  Removing 1457 isolated nodes.
  Removing 0 isolated nodes.
-------------------------------
          Load Buffer          
-------------------------------
  Adding 1400 new edges.
  Removing 8400 edges.
  Removing 0 isolated nodes.
-------------------------------
          Store Buffer         
-------------------------------
  Adding 12664 new edges.
  Removing 3764 isolated nodes.
  Removing 0 isolated nodes.
-------------------------------
    Remove Repeated Stores     
-------------------------------
-------------------------------
      Memory Ambiguation       
-------------------------------
  Adding 6 new edges.
-------------------------------
     Tree Height Reduction     
-------------------------------
  Removing 8000 edges.
  Adding 8000 new edges.
  Removing 0 isolated nodes.
-------------------------------
  Fuse register loads/stores   
-------------------------------
  Removing 8442 edges.
  Adding 8442 new edges.
  Removing 0 isolated nodes.
-------------------------------
   Fuse consecutive branches   
-------------------------------
  Removing 10751 edges.
  Adding 10751 new edges.
  Removing 0 isolated nodes.
-------------------------------
      Per Loop Pipelining      
-------------------------------
  Adding 78808 new edges.
  Removing 79877 edges.
  Removing 0 isolated nodes.
-------------------------------
         Loop Pipelining        
-------------------------------
=============================================
      Scheduling...            ./outputs/nnet_fwd
=============================================
  Total connected nodes: 82842
  Total edges: 347267
=============================================
40103597000: system.acc0_datapath: Scheduling DMA load operation with node id 72 with delay 588000
40104185000: system.acc0_datapath: Adding DMA node 72 to DMA issue queue.
40104185000: system.acc0_datapath: issueDmaRequest: src_addr: 0x2923e60, dst_addr: 0x29502e0, size: 1568
40104185000: system.acc0_datapath: DMA Accesses: array label a
40104185000: system.acc0_datapath: Increment the dmaLoad accesses of partition a with size 1568. 
40104216001: system.acc0_datapath: Receiving DMA response for node 72, address 0x29502e0 with label a and size 32.
40104219001: system.acc0_datapath: Receiving DMA response for node 72, address 0x2950340 with label a and size 32.
40104224501: system.acc0_datapath: Receiving DMA response for node 72, address 0x2950300 with label a and size 32.
40104226001: system.acc0_datapath: Receiving DMA response for node 72, address 0x2950320 with label a and size 32.
40104227501: system.acc0_datapath: Receiving DMA response for node 72, address 0x2950360 with label a and size 32.
40104229001: system.acc0_datapath: Receiving DMA response for node 72, address 0x2950380 with label a and size 32.
40104230501: system.acc0_datapath: Receiving DMA response for node 72, address 0x29503a0 with label a and size 32.
40104232001: system.acc0_datapath: Receiving DMA response for node 72, address 0x29503c0 with label a and size 32.
40104233501: system.acc0_datapath: Receiving DMA response for node 72, address 0x29503e0 with label a and size 32.
40104235001: system.acc0_datapath: Receiving DMA response for node 72, address 0x2950460 with label a and size 32.
40104236501: system.acc0_datapath: Receiving DMA response for node 72, address 0x2950400 with label a and size 32.
40104238001: system.acc0_datapath: Receiving DMA response for node 72, address 0x2950420 with label a and size 32.
40104241001: system.acc0_datapath: Receiving DMA response for node 72, address 0x2950440 with label a and size 32.
40104242501: system.acc0_datapath: Receiving DMA response for node 72, address 0x2950480 with label a and size 32.
40104244501: system.acc0_datapath: Receiving DMA response for node 72, address 0x29504a0 with label a and size 32.
40104246001: system.acc0_datapath: Receiving DMA response for node 72, address 0x29504c0 with label a and size 32.
40104258501: system.acc0_datapath: Receiving DMA response for node 72, address 0x29504e0 with label a and size 32.
40104260001: system.acc0_datapath: Receiving DMA response for node 72, address 0x2950500 with label a and size 32.
40104266001: system.acc0_datapath: Receiving DMA response for node 72, address 0x2950520 with label a and size 32.
40104267501: system.acc0_datapath: Receiving DMA response for node 72, address 0x2950540 with label a and size 32.
40104269001: system.acc0_datapath: Receiving DMA response for node 72, address 0x2950560 with label a and size 32.
40104270501: system.acc0_datapath: Receiving DMA response for node 72, address 0x2950580 with label a and size 32.
40104272001: system.acc0_datapath: Receiving DMA response for node 72, address 0x29505a0 with label a and size 32.
40104277001: system.acc0_datapath: Receiving DMA response for node 72, address 0x29505c0 with label a and size 32.
40104280001: system.acc0_datapath: Receiving DMA response for node 72, address 0x29505e0 with label a and size 32.
40104281501: system.acc0_datapath: Receiving DMA response for node 72, address 0x2950600 with label a and size 32.
40104283001: system.acc0_datapath: Receiving DMA response for node 72, address 0x2950620 with label a and size 32.
40104284501: system.acc0_datapath: Receiving DMA response for node 72, address 0x2950640 with label a and size 32.
40104286001: system.acc0_datapath: Receiving DMA response for node 72, address 0x2950660 with label a and size 32.
40104287501: system.acc0_datapath: Receiving DMA response for node 72, address 0x2950680 with label a and size 32.
40104295501: system.acc0_datapath: Receiving DMA response for node 72, address 0x29506a0 with label a and size 32.
40104297001: system.acc0_datapath: Receiving DMA response for node 72, address 0x29506c0 with label a and size 32.
40104305501: system.acc0_datapath: Receiving DMA response for node 72, address 0x29506e0 with label a and size 32.
40104307001: system.acc0_datapath: Receiving DMA response for node 72, address 0x2950700 with label a and size 32.
40104308501: system.acc0_datapath: Receiving DMA response for node 72, address 0x2950720 with label a and size 32.
40104317001: system.acc0_datapath: Receiving DMA response for node 72, address 0x2950740 with label a and size 32.
40104318501: system.acc0_datapath: Receiving DMA response for node 72, address 0x2950760 with label a and size 32.
40104320001: system.acc0_datapath: Receiving DMA response for node 72, address 0x2950780 with label a and size 32.
40104321501: system.acc0_datapath: Receiving DMA response for node 72, address 0x29507a0 with label a and size 32.
40104324501: system.acc0_datapath: Receiving DMA response for node 72, address 0x29507c0 with label a and size 32.
40104326001: system.acc0_datapath: Receiving DMA response for node 72, address 0x29507e0 with label a and size 32.
40104327501: system.acc0_datapath: Receiving DMA response for node 72, address 0x2950800 with label a and size 32.
40104333501: system.acc0_datapath: Receiving DMA response for node 72, address 0x2950820 with label a and size 32.
40104335001: system.acc0_datapath: Receiving DMA response for node 72, address 0x2950840 with label a and size 32.
40104336501: system.acc0_datapath: Receiving DMA response for node 72, address 0x2950860 with label a and size 32.
40104338001: system.acc0_datapath: Receiving DMA response for node 72, address 0x2950880 with label a and size 32.
40104354501: system.acc0_datapath: Receiving DMA response for node 72, address 0x29508a0 with label a and size 32.
40104356001: system.acc0_datapath: Receiving DMA response for node 72, address 0x29508c0 with label a and size 32.
40104357501: system.acc0_datapath: Receiving DMA response for node 72, address 0x29508e0 with label a and size 32.
40104357501: system.acc0_datapath: dmaCompleteCallback for node 72.
40104514000: system.acc0_datapath: Scheduling DMA load operation with node id 1217 with delay 1536000
40106050000: system.acc0_datapath: Adding DMA node 1217 to DMA issue queue.
40106050000: system.acc0_datapath: issueDmaRequest: src_addr: 0x2943d60, dst_addr: 0x2960340, size: 4096
40106050000: system.acc0_datapath: DMA Accesses: array label b
40106050000: system.acc0_datapath: Increment the dmaLoad accesses of partition b with size 4096. 
40106139501: system.acc0_datapath: Receiving DMA response for node 1217, address 0x2960340 with label b and size 32.
40106144501: system.acc0_datapath: Receiving DMA response for node 1217, address 0x2960360 with label b and size 32.
40106149501: system.acc0_datapath: Receiving DMA response for node 1217, address 0x2960380 with label b and size 32.
40106154501: system.acc0_datapath: Receiving DMA response for node 1217, address 0x29603a0 with label b and size 32.
40106159501: system.acc0_datapath: Receiving DMA response for node 1217, address 0x29603c0 with label b and size 32.
40106164501: system.acc0_datapath: Receiving DMA response for node 1217, address 0x29603e0 with label b and size 32.
40106169501: system.acc0_datapath: Receiving DMA response for node 1217, address 0x2960400 with label b and size 32.
40106174501: system.acc0_datapath: Receiving DMA response for node 1217, address 0x2960420 with label b and size 32.
40106181001: system.acc0_datapath: Receiving DMA response for node 1217, address 0x2960440 with label b and size 32.
40106186001: system.acc0_datapath: Receiving DMA response for node 1217, address 0x2960460 with label b and size 32.
40106191001: system.acc0_datapath: Receiving DMA response for node 1217, address 0x2960480 with label b and size 32.
40106196001: system.acc0_datapath: Receiving DMA response for node 1217, address 0x29604a0 with label b and size 32.
40106201001: system.acc0_datapath: Receiving DMA response for node 1217, address 0x29604c0 with label b and size 32.
40106206001: system.acc0_datapath: Receiving DMA response for node 1217, address 0x29604e0 with label b and size 32.
40106211001: system.acc0_datapath: Receiving DMA response for node 1217, address 0x2960500 with label b and size 32.
40106216001: system.acc0_datapath: Receiving DMA response for node 1217, address 0x2960520 with label b and size 32.
40106221001: system.acc0_datapath: Receiving DMA response for node 1217, address 0x2960540 with label b and size 32.
40106226001: system.acc0_datapath: Receiving DMA response for node 1217, address 0x2960560 with label b and size 32.
40106231001: system.acc0_datapath: Receiving DMA response for node 1217, address 0x2960580 with label b and size 32.
40106236001: system.acc0_datapath: Receiving DMA response for node 1217, address 0x29605a0 with label b and size 32.
40106241001: system.acc0_datapath: Receiving DMA response for node 1217, address 0x29605c0 with label b and size 32.
40106246001: system.acc0_datapath: Receiving DMA response for node 1217, address 0x29605e0 with label b and size 32.
40106251001: system.acc0_datapath: Receiving DMA response for node 1217, address 0x2960600 with label b and size 32.
40106256001: system.acc0_datapath: Receiving DMA response for node 1217, address 0x2960620 with label b and size 32.
40106299501: system.acc0_datapath: Receiving DMA response for node 1217, address 0x2960640 with label b and size 32.
40106304501: system.acc0_datapath: Receiving DMA response for node 1217, address 0x2960660 with label b and size 32.
40106309501: system.acc0_datapath: Receiving DMA response for node 1217, address 0x2960680 with label b and size 32.
40106314501: system.acc0_datapath: Receiving DMA response for node 1217, address 0x29606a0 with label b and size 32.
40106319501: system.acc0_datapath: Receiving DMA response for node 1217, address 0x29606c0 with label b and size 32.
40106324501: system.acc0_datapath: Receiving DMA response for node 1217, address 0x29606e0 with label b and size 32.
40106329501: system.acc0_datapath: Receiving DMA response for node 1217, address 0x2960700 with label b and size 32.
40106334501: system.acc0_datapath: Receiving DMA response for node 1217, address 0x2960720 with label b and size 32.
40106339501: system.acc0_datapath: Receiving DMA response for node 1217, address 0x2960740 with label b and size 32.
40106344501: system.acc0_datapath: Receiving DMA response for node 1217, address 0x2960760 with label b and size 32.
40106349501: system.acc0_datapath: Receiving DMA response for node 1217, address 0x2960780 with label b and size 32.
40106354501: system.acc0_datapath: Receiving DMA response for node 1217, address 0x29607a0 with label b and size 32.
40106359501: system.acc0_datapath: Receiving DMA response for node 1217, address 0x29607c0 with label b and size 32.
40106364501: system.acc0_datapath: Receiving DMA response for node 1217, address 0x29607e0 with label b and size 32.
40106369501: system.acc0_datapath: Receiving DMA response for node 1217, address 0x2960800 with label b and size 32.
40106374501: system.acc0_datapath: Receiving DMA response for node 1217, address 0x2960820 with label b and size 32.
40106418001: system.acc0_datapath: Receiving DMA response for node 1217, address 0x2960840 with label b and size 32.
40106423001: system.acc0_datapath: Receiving DMA response for node 1217, address 0x2960860 with label b and size 32.
40106428001: system.acc0_datapath: Receiving DMA response for node 1217, address 0x2960880 with label b and size 32.
40106433001: system.acc0_datapath: Receiving DMA response for node 1217, address 0x29608a0 with label b and size 32.
40106438001: system.acc0_datapath: Receiving DMA response for node 1217, address 0x29608c0 with label b and size 32.
40106443001: system.acc0_datapath: Receiving DMA response for node 1217, address 0x29608e0 with label b and size 32.
40106448001: system.acc0_datapath: Receiving DMA response for node 1217, address 0x2960900 with label b and size 32.
40106453001: system.acc0_datapath: Receiving DMA response for node 1217, address 0x2960920 with label b and size 32.
40106458001: system.acc0_datapath: Receiving DMA response for node 1217, address 0x2960940 with label b and size 32.
40106463001: system.acc0_datapath: Receiving DMA response for node 1217, address 0x2960960 with label b and size 32.
40106468001: system.acc0_datapath: Receiving DMA response for node 1217, address 0x2960980 with label b and size 32.
40106473001: system.acc0_datapath: Receiving DMA response for node 1217, address 0x29609a0 with label b and size 32.
40106478001: system.acc0_datapath: Receiving DMA response for node 1217, address 0x29609c0 with label b and size 32.
40106483001: system.acc0_datapath: Receiving DMA response for node 1217, address 0x29609e0 with label b and size 32.
40106488001: system.acc0_datapath: Receiving DMA response for node 1217, address 0x2960a00 with label b and size 32.
40106493001: system.acc0_datapath: Receiving DMA response for node 1217, address 0x2960a20 with label b and size 32.
40106536501: system.acc0_datapath: Receiving DMA response for node 1217, address 0x2960a40 with label b and size 32.
40106541501: system.acc0_datapath: Receiving DMA response for node 1217, address 0x2960a60 with label b and size 32.
40106546501: system.acc0_datapath: Receiving DMA response for node 1217, address 0x2960a80 with label b and size 32.
40106551501: system.acc0_datapath: Receiving DMA response for node 1217, address 0x2960aa0 with label b and size 32.
40106556501: system.acc0_datapath: Receiving DMA response for node 1217, address 0x2960ac0 with label b and size 32.
40106561501: system.acc0_datapath: Receiving DMA response for node 1217, address 0x2960ae0 with label b and size 32.
40106566501: system.acc0_datapath: Receiving DMA response for node 1217, address 0x2960b00 with label b and size 32.
40106571501: system.acc0_datapath: Receiving DMA response for node 1217, address 0x2960b20 with label b and size 32.
40106576501: system.acc0_datapath: Receiving DMA response for node 1217, address 0x2960b40 with label b and size 32.
40106581501: system.acc0_datapath: Receiving DMA response for node 1217, address 0x2960b60 with label b and size 32.
40106586501: system.acc0_datapath: Receiving DMA response for node 1217, address 0x2960b80 with label b and size 32.
40106591501: system.acc0_datapath: Receiving DMA response for node 1217, address 0x2960ba0 with label b and size 32.
40106596501: system.acc0_datapath: Receiving DMA response for node 1217, address 0x2960bc0 with label b and size 32.
40106601501: system.acc0_datapath: Receiving DMA response for node 1217, address 0x2960be0 with label b and size 32.
40106606501: system.acc0_datapath: Receiving DMA response for node 1217, address 0x2960c00 with label b and size 32.
40106611501: system.acc0_datapath: Receiving DMA response for node 1217, address 0x2960c20 with label b and size 32.
40106655001: system.acc0_datapath: Receiving DMA response for node 1217, address 0x2960c40 with label b and size 32.
40106660001: system.acc0_datapath: Receiving DMA response for node 1217, address 0x2960c60 with label b and size 32.
40106665001: system.acc0_datapath: Receiving DMA response for node 1217, address 0x2960c80 with label b and size 32.
40106670001: system.acc0_datapath: Receiving DMA response for node 1217, address 0x2960ca0 with label b and size 32.
40106675001: system.acc0_datapath: Receiving DMA response for node 1217, address 0x2960cc0 with label b and size 32.
40106680001: system.acc0_datapath: Receiving DMA response for node 1217, address 0x2960ce0 with label b and size 32.
40106685001: system.acc0_datapath: Receiving DMA response for node 1217, address 0x2960d00 with label b and size 32.
40106690001: system.acc0_datapath: Receiving DMA response for node 1217, address 0x2960d20 with label b and size 32.
40106695001: system.acc0_datapath: Receiving DMA response for node 1217, address 0x2960d40 with label b and size 32.
40106700001: system.acc0_datapath: Receiving DMA response for node 1217, address 0x2960d60 with label b and size 32.
40106705001: system.acc0_datapath: Receiving DMA response for node 1217, address 0x2960d80 with label b and size 32.
40106710001: system.acc0_datapath: Receiving DMA response for node 1217, address 0x2960da0 with label b and size 32.
40106715001: system.acc0_datapath: Receiving DMA response for node 1217, address 0x2960dc0 with label b and size 32.
40106720001: system.acc0_datapath: Receiving DMA response for node 1217, address 0x2960de0 with label b and size 32.
40106725001: system.acc0_datapath: Receiving DMA response for node 1217, address 0x2960e00 with label b and size 32.
40106730001: system.acc0_datapath: Receiving DMA response for node 1217, address 0x2960e20 with label b and size 32.
40106773501: system.acc0_datapath: Receiving DMA response for node 1217, address 0x2960e40 with label b and size 32.
40106778501: system.acc0_datapath: Receiving DMA response for node 1217, address 0x2960e60 with label b and size 32.
40106783501: system.acc0_datapath: Receiving DMA response for node 1217, address 0x2960e80 with label b and size 32.
40106788501: system.acc0_datapath: Receiving DMA response for node 1217, address 0x2960ea0 with label b and size 32.
40106793501: system.acc0_datapath: Receiving DMA response for node 1217, address 0x2960ec0 with label b and size 32.
40106798501: system.acc0_datapath: Receiving DMA response for node 1217, address 0x2960ee0 with label b and size 32.
40106803501: system.acc0_datapath: Receiving DMA response for node 1217, address 0x2960f00 with label b and size 32.
40106808501: system.acc0_datapath: Receiving DMA response for node 1217, address 0x2960f20 with label b and size 32.
40106813501: system.acc0_datapath: Receiving DMA response for node 1217, address 0x2960f40 with label b and size 32.
40106818501: system.acc0_datapath: Receiving DMA response for node 1217, address 0x2960f60 with label b and size 32.
40106823501: system.acc0_datapath: Receiving DMA response for node 1217, address 0x2960f80 with label b and size 32.
40106828501: system.acc0_datapath: Receiving DMA response for node 1217, address 0x2960fa0 with label b and size 32.
40106833501: system.acc0_datapath: Receiving DMA response for node 1217, address 0x2960fc0 with label b and size 32.
40106838501: system.acc0_datapath: Receiving DMA response for node 1217, address 0x2960fe0 with label b and size 32.
40106843501: system.acc0_datapath: Receiving DMA response for node 1217, address 0x2961000 with label b and size 32.
40106848501: system.acc0_datapath: Receiving DMA response for node 1217, address 0x2961020 with label b and size 32.
40106892001: system.acc0_datapath: Receiving DMA response for node 1217, address 0x2961040 with label b and size 32.
40106897001: system.acc0_datapath: Receiving DMA response for node 1217, address 0x2961060 with label b and size 32.
40106902001: system.acc0_datapath: Receiving DMA response for node 1217, address 0x2961080 with label b and size 32.
40106907001: system.acc0_datapath: Receiving DMA response for node 1217, address 0x29610a0 with label b and size 32.
40106912001: system.acc0_datapath: Receiving DMA response for node 1217, address 0x29610c0 with label b and size 32.
40106917001: system.acc0_datapath: Receiving DMA response for node 1217, address 0x29610e0 with label b and size 32.
40106922001: system.acc0_datapath: Receiving DMA response for node 1217, address 0x2961100 with label b and size 32.
40106927001: system.acc0_datapath: Receiving DMA response for node 1217, address 0x2961120 with label b and size 32.
40106932001: system.acc0_datapath: Receiving DMA response for node 1217, address 0x2961140 with label b and size 32.
40106937001: system.acc0_datapath: Receiving DMA response for node 1217, address 0x2961160 with label b and size 32.
40106942001: system.acc0_datapath: Receiving DMA response for node 1217, address 0x2961180 with label b and size 32.
40106947001: system.acc0_datapath: Receiving DMA response for node 1217, address 0x29611a0 with label b and size 32.
40106952001: system.acc0_datapath: Receiving DMA response for node 1217, address 0x29611c0 with label b and size 32.
40106957001: system.acc0_datapath: Receiving DMA response for node 1217, address 0x29611e0 with label b and size 32.
40106962001: system.acc0_datapath: Receiving DMA response for node 1217, address 0x2961200 with label b and size 32.
40106967001: system.acc0_datapath: Receiving DMA response for node 1217, address 0x2961220 with label b and size 32.
40107010501: system.acc0_datapath: Receiving DMA response for node 1217, address 0x2961240 with label b and size 32.
40107015501: system.acc0_datapath: Receiving DMA response for node 1217, address 0x2961260 with label b and size 32.
40107020501: system.acc0_datapath: Receiving DMA response for node 1217, address 0x2961280 with label b and size 32.
40107025501: system.acc0_datapath: Receiving DMA response for node 1217, address 0x29612a0 with label b and size 32.
40107030501: system.acc0_datapath: Receiving DMA response for node 1217, address 0x29612c0 with label b and size 32.
40107035501: system.acc0_datapath: Receiving DMA response for node 1217, address 0x29612e0 with label b and size 32.
40107040501: system.acc0_datapath: Receiving DMA response for node 1217, address 0x2961300 with label b and size 32.
40107045501: system.acc0_datapath: Receiving DMA response for node 1217, address 0x2961320 with label b and size 32.
40107045501: system.acc0_datapath: dmaCompleteCallback for node 1217.
40107431000: system.acc0_datapath: Scheduling DMA load operation with node id 4067 with delay 1536000
40108967000: system.acc0_datapath: Adding DMA node 4067 to DMA issue queue.
40108967000: system.acc0_datapath: issueDmaRequest: src_addr: 0x2944d60, dst_addr: 0x2962340, size: 4096
40108967000: system.acc0_datapath: DMA Accesses: array label b
40108967000: system.acc0_datapath: Increment the dmaLoad accesses of partition b with size 4096. 
40109038501: system.acc0_datapath: Receiving DMA response for node 4067, address 0x2962340 with label b and size 32.
40109043501: system.acc0_datapath: Receiving DMA response for node 4067, address 0x2962360 with label b and size 32.
40109048501: system.acc0_datapath: Receiving DMA response for node 4067, address 0x2962380 with label b and size 32.
40109053501: system.acc0_datapath: Receiving DMA response for node 4067, address 0x29623a0 with label b and size 32.
40109058501: system.acc0_datapath: Receiving DMA response for node 4067, address 0x29623c0 with label b and size 32.
40109063501: system.acc0_datapath: Receiving DMA response for node 4067, address 0x29623e0 with label b and size 32.
40109068501: system.acc0_datapath: Receiving DMA response for node 4067, address 0x2962400 with label b and size 32.
40109073501: system.acc0_datapath: Receiving DMA response for node 4067, address 0x2962420 with label b and size 32.
40109078501: system.acc0_datapath: Receiving DMA response for node 4067, address 0x2962440 with label b and size 32.
40109083501: system.acc0_datapath: Receiving DMA response for node 4067, address 0x2962460 with label b and size 32.
40109088501: system.acc0_datapath: Receiving DMA response for node 4067, address 0x2962480 with label b and size 32.
40109093501: system.acc0_datapath: Receiving DMA response for node 4067, address 0x29624a0 with label b and size 32.
40109098501: system.acc0_datapath: Receiving DMA response for node 4067, address 0x29624c0 with label b and size 32.
40109103501: system.acc0_datapath: Receiving DMA response for node 4067, address 0x29624e0 with label b and size 32.
40109108501: system.acc0_datapath: Receiving DMA response for node 4067, address 0x2962500 with label b and size 32.
40109113501: system.acc0_datapath: Receiving DMA response for node 4067, address 0x2962520 with label b and size 32.
40109118501: system.acc0_datapath: Receiving DMA response for node 4067, address 0x2962540 with label b and size 32.
40109123501: system.acc0_datapath: Receiving DMA response for node 4067, address 0x2962560 with label b and size 32.
40109128501: system.acc0_datapath: Receiving DMA response for node 4067, address 0x2962580 with label b and size 32.
40109133501: system.acc0_datapath: Receiving DMA response for node 4067, address 0x29625a0 with label b and size 32.
40109138501: system.acc0_datapath: Receiving DMA response for node 4067, address 0x29625c0 with label b and size 32.
40109143501: system.acc0_datapath: Receiving DMA response for node 4067, address 0x29625e0 with label b and size 32.
40109148501: system.acc0_datapath: Receiving DMA response for node 4067, address 0x2962600 with label b and size 32.
40109153501: system.acc0_datapath: Receiving DMA response for node 4067, address 0x2962620 with label b and size 32.
40109197001: system.acc0_datapath: Receiving DMA response for node 4067, address 0x2962640 with label b and size 32.
40109202001: system.acc0_datapath: Receiving DMA response for node 4067, address 0x2962660 with label b and size 32.
40109207001: system.acc0_datapath: Receiving DMA response for node 4067, address 0x2962680 with label b and size 32.
40109212001: system.acc0_datapath: Receiving DMA response for node 4067, address 0x29626a0 with label b and size 32.
40109217001: system.acc0_datapath: Receiving DMA response for node 4067, address 0x29626c0 with label b and size 32.
40109222001: system.acc0_datapath: Receiving DMA response for node 4067, address 0x29626e0 with label b and size 32.
40109227001: system.acc0_datapath: Receiving DMA response for node 4067, address 0x2962700 with label b and size 32.
40109232001: system.acc0_datapath: Receiving DMA response for node 4067, address 0x2962720 with label b and size 32.
40109237001: system.acc0_datapath: Receiving DMA response for node 4067, address 0x2962740 with label b and size 32.
40109242001: system.acc0_datapath: Receiving DMA response for node 4067, address 0x2962760 with label b and size 32.
40109247001: system.acc0_datapath: Receiving DMA response for node 4067, address 0x2962780 with label b and size 32.
40109252001: system.acc0_datapath: Receiving DMA response for node 4067, address 0x29627a0 with label b and size 32.
40109257001: system.acc0_datapath: Receiving DMA response for node 4067, address 0x29627c0 with label b and size 32.
40109262001: system.acc0_datapath: Receiving DMA response for node 4067, address 0x29627e0 with label b and size 32.
40109267001: system.acc0_datapath: Receiving DMA response for node 4067, address 0x2962800 with label b and size 32.
40109272001: system.acc0_datapath: Receiving DMA response for node 4067, address 0x2962820 with label b and size 32.
40109315501: system.acc0_datapath: Receiving DMA response for node 4067, address 0x2962840 with label b and size 32.
40109320501: system.acc0_datapath: Receiving DMA response for node 4067, address 0x2962860 with label b and size 32.
40109325501: system.acc0_datapath: Receiving DMA response for node 4067, address 0x2962880 with label b and size 32.
40109330501: system.acc0_datapath: Receiving DMA response for node 4067, address 0x29628a0 with label b and size 32.
40109335501: system.acc0_datapath: Receiving DMA response for node 4067, address 0x29628c0 with label b and size 32.
40109340501: system.acc0_datapath: Receiving DMA response for node 4067, address 0x29628e0 with label b and size 32.
40109345501: system.acc0_datapath: Receiving DMA response for node 4067, address 0x2962900 with label b and size 32.
40109350501: system.acc0_datapath: Receiving DMA response for node 4067, address 0x2962920 with label b and size 32.
40109355501: system.acc0_datapath: Receiving DMA response for node 4067, address 0x2962940 with label b and size 32.
40109360501: system.acc0_datapath: Receiving DMA response for node 4067, address 0x2962960 with label b and size 32.
40109365501: system.acc0_datapath: Receiving DMA response for node 4067, address 0x2962980 with label b and size 32.
40109370501: system.acc0_datapath: Receiving DMA response for node 4067, address 0x29629a0 with label b and size 32.
40109375501: system.acc0_datapath: Receiving DMA response for node 4067, address 0x29629c0 with label b and size 32.
40109380501: system.acc0_datapath: Receiving DMA response for node 4067, address 0x29629e0 with label b and size 32.
40109385501: system.acc0_datapath: Receiving DMA response for node 4067, address 0x2962a00 with label b and size 32.
40109390501: system.acc0_datapath: Receiving DMA response for node 4067, address 0x2962a20 with label b and size 32.
40109434001: system.acc0_datapath: Receiving DMA response for node 4067, address 0x2962a40 with label b and size 32.
40109439001: system.acc0_datapath: Receiving DMA response for node 4067, address 0x2962a60 with label b and size 32.
40109444001: system.acc0_datapath: Receiving DMA response for node 4067, address 0x2962a80 with label b and size 32.
40109449001: system.acc0_datapath: Receiving DMA response for node 4067, address 0x2962aa0 with label b and size 32.
40109454001: system.acc0_datapath: Receiving DMA response for node 4067, address 0x2962ac0 with label b and size 32.
40109459001: system.acc0_datapath: Receiving DMA response for node 4067, address 0x2962ae0 with label b and size 32.
40109464001: system.acc0_datapath: Receiving DMA response for node 4067, address 0x2962b00 with label b and size 32.
40109469001: system.acc0_datapath: Receiving DMA response for node 4067, address 0x2962b20 with label b and size 32.
40109474001: system.acc0_datapath: Receiving DMA response for node 4067, address 0x2962b40 with label b and size 32.
40109479001: system.acc0_datapath: Receiving DMA response for node 4067, address 0x2962b60 with label b and size 32.
40109484001: system.acc0_datapath: Receiving DMA response for node 4067, address 0x2962b80 with label b and size 32.
40109489001: system.acc0_datapath: Receiving DMA response for node 4067, address 0x2962ba0 with label b and size 32.
40109494001: system.acc0_datapath: Receiving DMA response for node 4067, address 0x2962bc0 with label b and size 32.
40109499001: system.acc0_datapath: Receiving DMA response for node 4067, address 0x2962be0 with label b and size 32.
40109504001: system.acc0_datapath: Receiving DMA response for node 4067, address 0x2962c00 with label b and size 32.
40109509001: system.acc0_datapath: Receiving DMA response for node 4067, address 0x2962c20 with label b and size 32.
40109552501: system.acc0_datapath: Receiving DMA response for node 4067, address 0x2962c40 with label b and size 32.
40109557501: system.acc0_datapath: Receiving DMA response for node 4067, address 0x2962c60 with label b and size 32.
40109562501: system.acc0_datapath: Receiving DMA response for node 4067, address 0x2962c80 with label b and size 32.
40109567501: system.acc0_datapath: Receiving DMA response for node 4067, address 0x2962ca0 with label b and size 32.
40109572501: system.acc0_datapath: Receiving DMA response for node 4067, address 0x2962cc0 with label b and size 32.
40109577501: system.acc0_datapath: Receiving DMA response for node 4067, address 0x2962ce0 with label b and size 32.
40109582501: system.acc0_datapath: Receiving DMA response for node 4067, address 0x2962d00 with label b and size 32.
40109587501: system.acc0_datapath: Receiving DMA response for node 4067, address 0x2962d20 with label b and size 32.
40109592501: system.acc0_datapath: Receiving DMA response for node 4067, address 0x2962d40 with label b and size 32.
40109597501: system.acc0_datapath: Receiving DMA response for node 4067, address 0x2962d60 with label b and size 32.
40109602501: system.acc0_datapath: Receiving DMA response for node 4067, address 0x2962d80 with label b and size 32.
40109607501: system.acc0_datapath: Receiving DMA response for node 4067, address 0x2962da0 with label b and size 32.
40109612501: system.acc0_datapath: Receiving DMA response for node 4067, address 0x2962dc0 with label b and size 32.
40109617501: system.acc0_datapath: Receiving DMA response for node 4067, address 0x2962de0 with label b and size 32.
40109622501: system.acc0_datapath: Receiving DMA response for node 4067, address 0x2962e00 with label b and size 32.
40109627501: system.acc0_datapath: Receiving DMA response for node 4067, address 0x2962e20 with label b and size 32.
40109671001: system.acc0_datapath: Receiving DMA response for node 4067, address 0x2962e40 with label b and size 32.
40109676001: system.acc0_datapath: Receiving DMA response for node 4067, address 0x2962e60 with label b and size 32.
40109681001: system.acc0_datapath: Receiving DMA response for node 4067, address 0x2962e80 with label b and size 32.
40109686001: system.acc0_datapath: Receiving DMA response for node 4067, address 0x2962ea0 with label b and size 32.
40109691001: system.acc0_datapath: Receiving DMA response for node 4067, address 0x2962ec0 with label b and size 32.
40109696001: system.acc0_datapath: Receiving DMA response for node 4067, address 0x2962ee0 with label b and size 32.
40109701001: system.acc0_datapath: Receiving DMA response for node 4067, address 0x2962f00 with label b and size 32.
40109706001: system.acc0_datapath: Receiving DMA response for node 4067, address 0x2962f20 with label b and size 32.
40109711001: system.acc0_datapath: Receiving DMA response for node 4067, address 0x2962f40 with label b and size 32.
40109716001: system.acc0_datapath: Receiving DMA response for node 4067, address 0x2962f60 with label b and size 32.
40109721001: system.acc0_datapath: Receiving DMA response for node 4067, address 0x2962f80 with label b and size 32.
40109726001: system.acc0_datapath: Receiving DMA response for node 4067, address 0x2962fa0 with label b and size 32.
40109731001: system.acc0_datapath: Receiving DMA response for node 4067, address 0x2962fc0 with label b and size 32.
40109736001: system.acc0_datapath: Receiving DMA response for node 4067, address 0x2962fe0 with label b and size 32.
40109741001: system.acc0_datapath: Receiving DMA response for node 4067, address 0x2963000 with label b and size 32.
40109746001: system.acc0_datapath: Receiving DMA response for node 4067, address 0x2963020 with label b and size 32.
40109789501: system.acc0_datapath: Receiving DMA response for node 4067, address 0x2963040 with label b and size 32.
40109794501: system.acc0_datapath: Receiving DMA response for node 4067, address 0x2963060 with label b and size 32.
40109799501: system.acc0_datapath: Receiving DMA response for node 4067, address 0x2963080 with label b and size 32.
40109804501: system.acc0_datapath: Receiving DMA response for node 4067, address 0x29630a0 with label b and size 32.
40109809501: system.acc0_datapath: Receiving DMA response for node 4067, address 0x29630c0 with label b and size 32.
40109814501: system.acc0_datapath: Receiving DMA response for node 4067, address 0x29630e0 with label b and size 32.
40109819501: system.acc0_datapath: Receiving DMA response for node 4067, address 0x2963100 with label b and size 32.
40109824501: system.acc0_datapath: Receiving DMA response for node 4067, address 0x2963120 with label b and size 32.
40109829501: system.acc0_datapath: Receiving DMA response for node 4067, address 0x2963140 with label b and size 32.
40109834501: system.acc0_datapath: Receiving DMA response for node 4067, address 0x2963160 with label b and size 32.
40109839501: system.acc0_datapath: Receiving DMA response for node 4067, address 0x2963180 with label b and size 32.
40109844501: system.acc0_datapath: Receiving DMA response for node 4067, address 0x29631a0 with label b and size 32.
40109849501: system.acc0_datapath: Receiving DMA response for node 4067, address 0x29631c0 with label b and size 32.
40109854501: system.acc0_datapath: Receiving DMA response for node 4067, address 0x29631e0 with label b and size 32.
40109859501: system.acc0_datapath: Receiving DMA response for node 4067, address 0x2963200 with label b and size 32.
40109864501: system.acc0_datapath: Receiving DMA response for node 4067, address 0x2963220 with label b and size 32.
40109908001: system.acc0_datapath: Receiving DMA response for node 4067, address 0x2963240 with label b and size 32.
40109913001: system.acc0_datapath: Receiving DMA response for node 4067, address 0x2963260 with label b and size 32.
40109918001: system.acc0_datapath: Receiving DMA response for node 4067, address 0x2963280 with label b and size 32.
40109923001: system.acc0_datapath: Receiving DMA response for node 4067, address 0x29632a0 with label b and size 32.
40109928001: system.acc0_datapath: Receiving DMA response for node 4067, address 0x29632c0 with label b and size 32.
40109933001: system.acc0_datapath: Receiving DMA response for node 4067, address 0x29632e0 with label b and size 32.
40109938001: system.acc0_datapath: Receiving DMA response for node 4067, address 0x2963300 with label b and size 32.
40109943001: system.acc0_datapath: Receiving DMA response for node 4067, address 0x2963320 with label b and size 32.
40109943001: system.acc0_datapath: dmaCompleteCallback for node 4067.
40110329000: system.acc0_datapath: Scheduling DMA load operation with node id 6917 with delay 1536000
40111865000: system.acc0_datapath: Adding DMA node 6917 to DMA issue queue.
40111865000: system.acc0_datapath: issueDmaRequest: src_addr: 0x2945d60, dst_addr: 0x2964340, size: 4096
40111865000: system.acc0_datapath: DMA Accesses: array label b
40111865000: system.acc0_datapath: Increment the dmaLoad accesses of partition b with size 4096. 
40111936501: system.acc0_datapath: Receiving DMA response for node 6917, address 0x2964340 with label b and size 32.
40111941501: system.acc0_datapath: Receiving DMA response for node 6917, address 0x2964360 with label b and size 32.
40111946501: system.acc0_datapath: Receiving DMA response for node 6917, address 0x2964380 with label b and size 32.
40111951501: system.acc0_datapath: Receiving DMA response for node 6917, address 0x29643a0 with label b and size 32.
40111956501: system.acc0_datapath: Receiving DMA response for node 6917, address 0x29643c0 with label b and size 32.
40111961501: system.acc0_datapath: Receiving DMA response for node 6917, address 0x29643e0 with label b and size 32.
40111966501: system.acc0_datapath: Receiving DMA response for node 6917, address 0x2964400 with label b and size 32.
40111971501: system.acc0_datapath: Receiving DMA response for node 6917, address 0x2964420 with label b and size 32.
40111976501: system.acc0_datapath: Receiving DMA response for node 6917, address 0x2964440 with label b and size 32.
40111981501: system.acc0_datapath: Receiving DMA response for node 6917, address 0x2964460 with label b and size 32.
40111986501: system.acc0_datapath: Receiving DMA response for node 6917, address 0x2964480 with label b and size 32.
40111991501: system.acc0_datapath: Receiving DMA response for node 6917, address 0x29644a0 with label b and size 32.
40111996501: system.acc0_datapath: Receiving DMA response for node 6917, address 0x29644c0 with label b and size 32.
40112001501: system.acc0_datapath: Receiving DMA response for node 6917, address 0x29644e0 with label b and size 32.
40112006501: system.acc0_datapath: Receiving DMA response for node 6917, address 0x2964500 with label b and size 32.
40112011501: system.acc0_datapath: Receiving DMA response for node 6917, address 0x2964520 with label b and size 32.
40112016501: system.acc0_datapath: Receiving DMA response for node 6917, address 0x2964540 with label b and size 32.
40112021501: system.acc0_datapath: Receiving DMA response for node 6917, address 0x2964560 with label b and size 32.
40112026501: system.acc0_datapath: Receiving DMA response for node 6917, address 0x2964580 with label b and size 32.
40112031501: system.acc0_datapath: Receiving DMA response for node 6917, address 0x29645a0 with label b and size 32.
40112036501: system.acc0_datapath: Receiving DMA response for node 6917, address 0x29645c0 with label b and size 32.
40112041501: system.acc0_datapath: Receiving DMA response for node 6917, address 0x29645e0 with label b and size 32.
40112046501: system.acc0_datapath: Receiving DMA response for node 6917, address 0x2964600 with label b and size 32.
40112051501: system.acc0_datapath: Receiving DMA response for node 6917, address 0x2964620 with label b and size 32.
40112095001: system.acc0_datapath: Receiving DMA response for node 6917, address 0x2964640 with label b and size 32.
40112100001: system.acc0_datapath: Receiving DMA response for node 6917, address 0x2964660 with label b and size 32.
40112105001: system.acc0_datapath: Receiving DMA response for node 6917, address 0x2964680 with label b and size 32.
40112110001: system.acc0_datapath: Receiving DMA response for node 6917, address 0x29646a0 with label b and size 32.
40112115001: system.acc0_datapath: Receiving DMA response for node 6917, address 0x29646c0 with label b and size 32.
40112120001: system.acc0_datapath: Receiving DMA response for node 6917, address 0x29646e0 with label b and size 32.
40112125001: system.acc0_datapath: Receiving DMA response for node 6917, address 0x2964700 with label b and size 32.
40112130001: system.acc0_datapath: Receiving DMA response for node 6917, address 0x2964720 with label b and size 32.
40112135001: system.acc0_datapath: Receiving DMA response for node 6917, address 0x2964740 with label b and size 32.
40112140001: system.acc0_datapath: Receiving DMA response for node 6917, address 0x2964760 with label b and size 32.
40112145001: system.acc0_datapath: Receiving DMA response for node 6917, address 0x2964780 with label b and size 32.
40112150001: system.acc0_datapath: Receiving DMA response for node 6917, address 0x29647a0 with label b and size 32.
40112155001: system.acc0_datapath: Receiving DMA response for node 6917, address 0x29647c0 with label b and size 32.
40112160001: system.acc0_datapath: Receiving DMA response for node 6917, address 0x29647e0 with label b and size 32.
40112165001: system.acc0_datapath: Receiving DMA response for node 6917, address 0x2964800 with label b and size 32.
40112170001: system.acc0_datapath: Receiving DMA response for node 6917, address 0x2964820 with label b and size 32.
40112213501: system.acc0_datapath: Receiving DMA response for node 6917, address 0x2964840 with label b and size 32.
40112218501: system.acc0_datapath: Receiving DMA response for node 6917, address 0x2964860 with label b and size 32.
40112223501: system.acc0_datapath: Receiving DMA response for node 6917, address 0x2964880 with label b and size 32.
40112228501: system.acc0_datapath: Receiving DMA response for node 6917, address 0x29648a0 with label b and size 32.
40112233501: system.acc0_datapath: Receiving DMA response for node 6917, address 0x29648c0 with label b and size 32.
40112238501: system.acc0_datapath: Receiving DMA response for node 6917, address 0x29648e0 with label b and size 32.
40112243501: system.acc0_datapath: Receiving DMA response for node 6917, address 0x2964900 with label b and size 32.
40112248501: system.acc0_datapath: Receiving DMA response for node 6917, address 0x2964920 with label b and size 32.
40112253501: system.acc0_datapath: Receiving DMA response for node 6917, address 0x2964940 with label b and size 32.
40112258501: system.acc0_datapath: Receiving DMA response for node 6917, address 0x2964960 with label b and size 32.
40112263501: system.acc0_datapath: Receiving DMA response for node 6917, address 0x2964980 with label b and size 32.
40112268501: system.acc0_datapath: Receiving DMA response for node 6917, address 0x29649a0 with label b and size 32.
40112273501: system.acc0_datapath: Receiving DMA response for node 6917, address 0x29649c0 with label b and size 32.
40112278501: system.acc0_datapath: Receiving DMA response for node 6917, address 0x29649e0 with label b and size 32.
40112283501: system.acc0_datapath: Receiving DMA response for node 6917, address 0x2964a00 with label b and size 32.
40112288501: system.acc0_datapath: Receiving DMA response for node 6917, address 0x2964a20 with label b and size 32.
40112332001: system.acc0_datapath: Receiving DMA response for node 6917, address 0x2964a40 with label b and size 32.
40112337001: system.acc0_datapath: Receiving DMA response for node 6917, address 0x2964a60 with label b and size 32.
40112342001: system.acc0_datapath: Receiving DMA response for node 6917, address 0x2964a80 with label b and size 32.
40112347001: system.acc0_datapath: Receiving DMA response for node 6917, address 0x2964aa0 with label b and size 32.
40112352001: system.acc0_datapath: Receiving DMA response for node 6917, address 0x2964ac0 with label b and size 32.
40112357001: system.acc0_datapath: Receiving DMA response for node 6917, address 0x2964ae0 with label b and size 32.
40112362001: system.acc0_datapath: Receiving DMA response for node 6917, address 0x2964b00 with label b and size 32.
40112367001: system.acc0_datapath: Receiving DMA response for node 6917, address 0x2964b20 with label b and size 32.
40112372001: system.acc0_datapath: Receiving DMA response for node 6917, address 0x2964b40 with label b and size 32.
40112377001: system.acc0_datapath: Receiving DMA response for node 6917, address 0x2964b60 with label b and size 32.
40112382001: system.acc0_datapath: Receiving DMA response for node 6917, address 0x2964b80 with label b and size 32.
40112387001: system.acc0_datapath: Receiving DMA response for node 6917, address 0x2964ba0 with label b and size 32.
40112392001: system.acc0_datapath: Receiving DMA response for node 6917, address 0x2964bc0 with label b and size 32.
40112397001: system.acc0_datapath: Receiving DMA response for node 6917, address 0x2964be0 with label b and size 32.
40112402001: system.acc0_datapath: Receiving DMA response for node 6917, address 0x2964c00 with label b and size 32.
40112407001: system.acc0_datapath: Receiving DMA response for node 6917, address 0x2964c20 with label b and size 32.
40112450501: system.acc0_datapath: Receiving DMA response for node 6917, address 0x2964c40 with label b and size 32.
40112455501: system.acc0_datapath: Receiving DMA response for node 6917, address 0x2964c60 with label b and size 32.
40112460501: system.acc0_datapath: Receiving DMA response for node 6917, address 0x2964c80 with label b and size 32.
40112465501: system.acc0_datapath: Receiving DMA response for node 6917, address 0x2964ca0 with label b and size 32.
40112470501: system.acc0_datapath: Receiving DMA response for node 6917, address 0x2964cc0 with label b and size 32.
40112475501: system.acc0_datapath: Receiving DMA response for node 6917, address 0x2964ce0 with label b and size 32.
40112480501: system.acc0_datapath: Receiving DMA response for node 6917, address 0x2964d00 with label b and size 32.
40112485501: system.acc0_datapath: Receiving DMA response for node 6917, address 0x2964d20 with label b and size 32.
40112490501: system.acc0_datapath: Receiving DMA response for node 6917, address 0x2964d40 with label b and size 32.
40112495501: system.acc0_datapath: Receiving DMA response for node 6917, address 0x2964d60 with label b and size 32.
40112500501: system.acc0_datapath: Receiving DMA response for node 6917, address 0x2964d80 with label b and size 32.
40112505501: system.acc0_datapath: Receiving DMA response for node 6917, address 0x2964da0 with label b and size 32.
40112510501: system.acc0_datapath: Receiving DMA response for node 6917, address 0x2964dc0 with label b and size 32.
40112515501: system.acc0_datapath: Receiving DMA response for node 6917, address 0x2964de0 with label b and size 32.
40112520501: system.acc0_datapath: Receiving DMA response for node 6917, address 0x2964e00 with label b and size 32.
40112525501: system.acc0_datapath: Receiving DMA response for node 6917, address 0x2964e20 with label b and size 32.
40112569001: system.acc0_datapath: Receiving DMA response for node 6917, address 0x2964e40 with label b and size 32.
40112574001: system.acc0_datapath: Receiving DMA response for node 6917, address 0x2964e60 with label b and size 32.
40112579001: system.acc0_datapath: Receiving DMA response for node 6917, address 0x2964e80 with label b and size 32.
40112584001: system.acc0_datapath: Receiving DMA response for node 6917, address 0x2964ea0 with label b and size 32.
40112589001: system.acc0_datapath: Receiving DMA response for node 6917, address 0x2964ec0 with label b and size 32.
40112594001: system.acc0_datapath: Receiving DMA response for node 6917, address 0x2964ee0 with label b and size 32.
40112599001: system.acc0_datapath: Receiving DMA response for node 6917, address 0x2964f00 with label b and size 32.
40112604001: system.acc0_datapath: Receiving DMA response for node 6917, address 0x2964f20 with label b and size 32.
40112609001: system.acc0_datapath: Receiving DMA response for node 6917, address 0x2964f40 with label b and size 32.
40112614001: system.acc0_datapath: Receiving DMA response for node 6917, address 0x2964f60 with label b and size 32.
40112619001: system.acc0_datapath: Receiving DMA response for node 6917, address 0x2964f80 with label b and size 32.
40112624001: system.acc0_datapath: Receiving DMA response for node 6917, address 0x2964fa0 with label b and size 32.
40112629001: system.acc0_datapath: Receiving DMA response for node 6917, address 0x2964fc0 with label b and size 32.
40112634001: system.acc0_datapath: Receiving DMA response for node 6917, address 0x2964fe0 with label b and size 32.
40112639001: system.acc0_datapath: Receiving DMA response for node 6917, address 0x2965000 with label b and size 32.
40112644001: system.acc0_datapath: Receiving DMA response for node 6917, address 0x2965020 with label b and size 32.
40112687501: system.acc0_datapath: Receiving DMA response for node 6917, address 0x2965040 with label b and size 32.
40112692501: system.acc0_datapath: Receiving DMA response for node 6917, address 0x2965060 with label b and size 32.
40112697501: system.acc0_datapath: Receiving DMA response for node 6917, address 0x2965080 with label b and size 32.
40112702501: system.acc0_datapath: Receiving DMA response for node 6917, address 0x29650a0 with label b and size 32.
40112707501: system.acc0_datapath: Receiving DMA response for node 6917, address 0x29650c0 with label b and size 32.
40112712501: system.acc0_datapath: Receiving DMA response for node 6917, address 0x29650e0 with label b and size 32.
40112717501: system.acc0_datapath: Receiving DMA response for node 6917, address 0x2965100 with label b and size 32.
40112722501: system.acc0_datapath: Receiving DMA response for node 6917, address 0x2965120 with label b and size 32.
40112727501: system.acc0_datapath: Receiving DMA response for node 6917, address 0x2965140 with label b and size 32.
40112732501: system.acc0_datapath: Receiving DMA response for node 6917, address 0x2965160 with label b and size 32.
40112737501: system.acc0_datapath: Receiving DMA response for node 6917, address 0x2965180 with label b and size 32.
40112742501: system.acc0_datapath: Receiving DMA response for node 6917, address 0x29651a0 with label b and size 32.
40112747501: system.acc0_datapath: Receiving DMA response for node 6917, address 0x29651c0 with label b and size 32.
40112752501: system.acc0_datapath: Receiving DMA response for node 6917, address 0x29651e0 with label b and size 32.
40112757501: system.acc0_datapath: Receiving DMA response for node 6917, address 0x2965200 with label b and size 32.
40112762501: system.acc0_datapath: Receiving DMA response for node 6917, address 0x2965220 with label b and size 32.
40112806001: system.acc0_datapath: Receiving DMA response for node 6917, address 0x2965240 with label b and size 32.
40112811001: system.acc0_datapath: Receiving DMA response for node 6917, address 0x2965260 with label b and size 32.
40112816001: system.acc0_datapath: Receiving DMA response for node 6917, address 0x2965280 with label b and size 32.
40112821001: system.acc0_datapath: Receiving DMA response for node 6917, address 0x29652a0 with label b and size 32.
40112826001: system.acc0_datapath: Receiving DMA response for node 6917, address 0x29652c0 with label b and size 32.
40112831001: system.acc0_datapath: Receiving DMA response for node 6917, address 0x29652e0 with label b and size 32.
40112836001: system.acc0_datapath: Receiving DMA response for node 6917, address 0x2965300 with label b and size 32.
40112841001: system.acc0_datapath: Receiving DMA response for node 6917, address 0x2965320 with label b and size 32.
40112841001: system.acc0_datapath: dmaCompleteCallback for node 6917.
40113227000: system.acc0_datapath: Scheduling DMA load operation with node id 9767 with delay 1536000
40114763000: system.acc0_datapath: Adding DMA node 9767 to DMA issue queue.
40114763000: system.acc0_datapath: issueDmaRequest: src_addr: 0x2946d60, dst_addr: 0x2966340, size: 4096
40114763000: system.acc0_datapath: DMA Accesses: array label b
40114763000: system.acc0_datapath: Increment the dmaLoad accesses of partition b with size 4096. 
40114816501: system.acc0_datapath: Receiving DMA response for node 9767, address 0x2966340 with label b and size 32.
40114821501: system.acc0_datapath: Receiving DMA response for node 9767, address 0x2966360 with label b and size 32.
40114826501: system.acc0_datapath: Receiving DMA response for node 9767, address 0x2966380 with label b and size 32.
40114831501: system.acc0_datapath: Receiving DMA response for node 9767, address 0x29663a0 with label b and size 32.
40114836501: system.acc0_datapath: Receiving DMA response for node 9767, address 0x29663c0 with label b and size 32.
40114841501: system.acc0_datapath: Receiving DMA response for node 9767, address 0x29663e0 with label b and size 32.
40114846501: system.acc0_datapath: Receiving DMA response for node 9767, address 0x2966400 with label b and size 32.
40114851501: system.acc0_datapath: Receiving DMA response for node 9767, address 0x2966420 with label b and size 32.
40114856501: system.acc0_datapath: Receiving DMA response for node 9767, address 0x2966440 with label b and size 32.
40114861501: system.acc0_datapath: Receiving DMA response for node 9767, address 0x2966460 with label b and size 32.
40114866501: system.acc0_datapath: Receiving DMA response for node 9767, address 0x2966480 with label b and size 32.
40114871501: system.acc0_datapath: Receiving DMA response for node 9767, address 0x29664a0 with label b and size 32.
40115095001: system.acc0_datapath: Receiving DMA response for node 9767, address 0x29664c0 with label b and size 32.
40115100001: system.acc0_datapath: Receiving DMA response for node 9767, address 0x29664e0 with label b and size 32.
40115105001: system.acc0_datapath: Receiving DMA response for node 9767, address 0x2966500 with label b and size 32.
40115110001: system.acc0_datapath: Receiving DMA response for node 9767, address 0x2966520 with label b and size 32.
40115115001: system.acc0_datapath: Receiving DMA response for node 9767, address 0x2966540 with label b and size 32.
40115120001: system.acc0_datapath: Receiving DMA response for node 9767, address 0x2966560 with label b and size 32.
40115125001: system.acc0_datapath: Receiving DMA response for node 9767, address 0x2966580 with label b and size 32.
40115130001: system.acc0_datapath: Receiving DMA response for node 9767, address 0x29665a0 with label b and size 32.
40115135001: system.acc0_datapath: Receiving DMA response for node 9767, address 0x29665c0 with label b and size 32.
40115140001: system.acc0_datapath: Receiving DMA response for node 9767, address 0x29665e0 with label b and size 32.
40115145001: system.acc0_datapath: Receiving DMA response for node 9767, address 0x2966600 with label b and size 32.
40115150001: system.acc0_datapath: Receiving DMA response for node 9767, address 0x2966620 with label b and size 32.
40115155001: system.acc0_datapath: Receiving DMA response for node 9767, address 0x2966640 with label b and size 32.
40115160001: system.acc0_datapath: Receiving DMA response for node 9767, address 0x2966660 with label b and size 32.
40115165001: system.acc0_datapath: Receiving DMA response for node 9767, address 0x2966680 with label b and size 32.
40115170001: system.acc0_datapath: Receiving DMA response for node 9767, address 0x29666a0 with label b and size 32.
40115213501: system.acc0_datapath: Receiving DMA response for node 9767, address 0x29666c0 with label b and size 32.
40115218501: system.acc0_datapath: Receiving DMA response for node 9767, address 0x29666e0 with label b and size 32.
40115223501: system.acc0_datapath: Receiving DMA response for node 9767, address 0x2966700 with label b and size 32.
40115228501: system.acc0_datapath: Receiving DMA response for node 9767, address 0x2966720 with label b and size 32.
40115233501: system.acc0_datapath: Receiving DMA response for node 9767, address 0x2966740 with label b and size 32.
40115238501: system.acc0_datapath: Receiving DMA response for node 9767, address 0x2966760 with label b and size 32.
40115243501: system.acc0_datapath: Receiving DMA response for node 9767, address 0x2966780 with label b and size 32.
40115248501: system.acc0_datapath: Receiving DMA response for node 9767, address 0x29667a0 with label b and size 32.
40115253501: system.acc0_datapath: Receiving DMA response for node 9767, address 0x29667c0 with label b and size 32.
40115258501: system.acc0_datapath: Receiving DMA response for node 9767, address 0x29667e0 with label b and size 32.
40115263501: system.acc0_datapath: Receiving DMA response for node 9767, address 0x2966800 with label b and size 32.
40115268501: system.acc0_datapath: Receiving DMA response for node 9767, address 0x2966820 with label b and size 32.
40115273501: system.acc0_datapath: Receiving DMA response for node 9767, address 0x2966840 with label b and size 32.
40115278501: system.acc0_datapath: Receiving DMA response for node 9767, address 0x2966860 with label b and size 32.
40115283501: system.acc0_datapath: Receiving DMA response for node 9767, address 0x2966880 with label b and size 32.
40115288501: system.acc0_datapath: Receiving DMA response for node 9767, address 0x29668a0 with label b and size 32.
40115332001: system.acc0_datapath: Receiving DMA response for node 9767, address 0x29668c0 with label b and size 32.
40115337001: system.acc0_datapath: Receiving DMA response for node 9767, address 0x29668e0 with label b and size 32.
40115342001: system.acc0_datapath: Receiving DMA response for node 9767, address 0x2966900 with label b and size 32.
40115347001: system.acc0_datapath: Receiving DMA response for node 9767, address 0x2966920 with label b and size 32.
40115352001: system.acc0_datapath: Receiving DMA response for node 9767, address 0x2966940 with label b and size 32.
40115357001: system.acc0_datapath: Receiving DMA response for node 9767, address 0x2966960 with label b and size 32.
40115362001: system.acc0_datapath: Receiving DMA response for node 9767, address 0x2966980 with label b and size 32.
40115367001: system.acc0_datapath: Receiving DMA response for node 9767, address 0x29669a0 with label b and size 32.
40115372001: system.acc0_datapath: Receiving DMA response for node 9767, address 0x29669c0 with label b and size 32.
40115377001: system.acc0_datapath: Receiving DMA response for node 9767, address 0x29669e0 with label b and size 32.
40115382001: system.acc0_datapath: Receiving DMA response for node 9767, address 0x2966a00 with label b and size 32.
40115387001: system.acc0_datapath: Receiving DMA response for node 9767, address 0x2966a20 with label b and size 32.
40115392001: system.acc0_datapath: Receiving DMA response for node 9767, address 0x2966a40 with label b and size 32.
40115397001: system.acc0_datapath: Receiving DMA response for node 9767, address 0x2966a60 with label b and size 32.
40115402001: system.acc0_datapath: Receiving DMA response for node 9767, address 0x2966a80 with label b and size 32.
40115407001: system.acc0_datapath: Receiving DMA response for node 9767, address 0x2966aa0 with label b and size 32.
40115450501: system.acc0_datapath: Receiving DMA response for node 9767, address 0x2966ac0 with label b and size 32.
40115455501: system.acc0_datapath: Receiving DMA response for node 9767, address 0x2966ae0 with label b and size 32.
40115460501: system.acc0_datapath: Receiving DMA response for node 9767, address 0x2966b00 with label b and size 32.
40115465501: system.acc0_datapath: Receiving DMA response for node 9767, address 0x2966b20 with label b and size 32.
40115470501: system.acc0_datapath: Receiving DMA response for node 9767, address 0x2966b40 with label b and size 32.
40115475501: system.acc0_datapath: Receiving DMA response for node 9767, address 0x2966b60 with label b and size 32.
40115480501: system.acc0_datapath: Receiving DMA response for node 9767, address 0x2966b80 with label b and size 32.
40115485501: system.acc0_datapath: Receiving DMA response for node 9767, address 0x2966ba0 with label b and size 32.
40115490501: system.acc0_datapath: Receiving DMA response for node 9767, address 0x2966bc0 with label b and size 32.
40115495501: system.acc0_datapath: Receiving DMA response for node 9767, address 0x2966be0 with label b and size 32.
40115500501: system.acc0_datapath: Receiving DMA response for node 9767, address 0x2966c00 with label b and size 32.
40115505501: system.acc0_datapath: Receiving DMA response for node 9767, address 0x2966c20 with label b and size 32.
40115510501: system.acc0_datapath: Receiving DMA response for node 9767, address 0x2966c40 with label b and size 32.
40115515501: system.acc0_datapath: Receiving DMA response for node 9767, address 0x2966c60 with label b and size 32.
40115520501: system.acc0_datapath: Receiving DMA response for node 9767, address 0x2966c80 with label b and size 32.
40115525501: system.acc0_datapath: Receiving DMA response for node 9767, address 0x2966ca0 with label b and size 32.
40115569001: system.acc0_datapath: Receiving DMA response for node 9767, address 0x2966cc0 with label b and size 32.
40115574001: system.acc0_datapath: Receiving DMA response for node 9767, address 0x2966ce0 with label b and size 32.
40115579001: system.acc0_datapath: Receiving DMA response for node 9767, address 0x2966d00 with label b and size 32.
40115584001: system.acc0_datapath: Receiving DMA response for node 9767, address 0x2966d20 with label b and size 32.
40115589001: system.acc0_datapath: Receiving DMA response for node 9767, address 0x2966d40 with label b and size 32.
40115594001: system.acc0_datapath: Receiving DMA response for node 9767, address 0x2966d60 with label b and size 32.
40115599001: system.acc0_datapath: Receiving DMA response for node 9767, address 0x2966d80 with label b and size 32.
40115604001: system.acc0_datapath: Receiving DMA response for node 9767, address 0x2966da0 with label b and size 32.
40115609001: system.acc0_datapath: Receiving DMA response for node 9767, address 0x2966dc0 with label b and size 32.
40115614001: system.acc0_datapath: Receiving DMA response for node 9767, address 0x2966de0 with label b and size 32.
40115619001: system.acc0_datapath: Receiving DMA response for node 9767, address 0x2966e00 with label b and size 32.
40115624001: system.acc0_datapath: Receiving DMA response for node 9767, address 0x2966e20 with label b and size 32.
40115629001: system.acc0_datapath: Receiving DMA response for node 9767, address 0x2966e40 with label b and size 32.
40115634001: system.acc0_datapath: Receiving DMA response for node 9767, address 0x2966e60 with label b and size 32.
40115639001: system.acc0_datapath: Receiving DMA response for node 9767, address 0x2966e80 with label b and size 32.
40115644001: system.acc0_datapath: Receiving DMA response for node 9767, address 0x2966ea0 with label b and size 32.
40115687501: system.acc0_datapath: Receiving DMA response for node 9767, address 0x2966ec0 with label b and size 32.
40115692501: system.acc0_datapath: Receiving DMA response for node 9767, address 0x2966ee0 with label b and size 32.
40115697501: system.acc0_datapath: Receiving DMA response for node 9767, address 0x2966f00 with label b and size 32.
40115702501: system.acc0_datapath: Receiving DMA response for node 9767, address 0x2966f20 with label b and size 32.
40115707501: system.acc0_datapath: Receiving DMA response for node 9767, address 0x2966f40 with label b and size 32.
40115712501: system.acc0_datapath: Receiving DMA response for node 9767, address 0x2966f60 with label b and size 32.
40115717501: system.acc0_datapath: Receiving DMA response for node 9767, address 0x2966f80 with label b and size 32.
40115722501: system.acc0_datapath: Receiving DMA response for node 9767, address 0x2966fa0 with label b and size 32.
40115727501: system.acc0_datapath: Receiving DMA response for node 9767, address 0x2966fc0 with label b and size 32.
40115732501: system.acc0_datapath: Receiving DMA response for node 9767, address 0x2966fe0 with label b and size 32.
40115737501: system.acc0_datapath: Receiving DMA response for node 9767, address 0x2967000 with label b and size 32.
40115742501: system.acc0_datapath: Receiving DMA response for node 9767, address 0x2967020 with label b and size 32.
40115747501: system.acc0_datapath: Receiving DMA response for node 9767, address 0x2967040 with label b and size 32.
40115752501: system.acc0_datapath: Receiving DMA response for node 9767, address 0x2967060 with label b and size 32.
40115757501: system.acc0_datapath: Receiving DMA response for node 9767, address 0x2967080 with label b and size 32.
40115762501: system.acc0_datapath: Receiving DMA response for node 9767, address 0x29670a0 with label b and size 32.
40115806001: system.acc0_datapath: Receiving DMA response for node 9767, address 0x29670c0 with label b and size 32.
40115811001: system.acc0_datapath: Receiving DMA response for node 9767, address 0x29670e0 with label b and size 32.
40115816001: system.acc0_datapath: Receiving DMA response for node 9767, address 0x2967100 with label b and size 32.
40115821001: system.acc0_datapath: Receiving DMA response for node 9767, address 0x2967120 with label b and size 32.
40115826001: system.acc0_datapath: Receiving DMA response for node 9767, address 0x2967140 with label b and size 32.
40115831001: system.acc0_datapath: Receiving DMA response for node 9767, address 0x2967160 with label b and size 32.
40115836001: system.acc0_datapath: Receiving DMA response for node 9767, address 0x2967180 with label b and size 32.
40115841001: system.acc0_datapath: Receiving DMA response for node 9767, address 0x29671a0 with label b and size 32.
40115846001: system.acc0_datapath: Receiving DMA response for node 9767, address 0x29671c0 with label b and size 32.
40115851001: system.acc0_datapath: Receiving DMA response for node 9767, address 0x29671e0 with label b and size 32.
40115856001: system.acc0_datapath: Receiving DMA response for node 9767, address 0x2967200 with label b and size 32.
40115861001: system.acc0_datapath: Receiving DMA response for node 9767, address 0x2967220 with label b and size 32.
40115866001: system.acc0_datapath: Receiving DMA response for node 9767, address 0x2967240 with label b and size 32.
40115871001: system.acc0_datapath: Receiving DMA response for node 9767, address 0x2967260 with label b and size 32.
40115876001: system.acc0_datapath: Receiving DMA response for node 9767, address 0x2967280 with label b and size 32.
40115881001: system.acc0_datapath: Receiving DMA response for node 9767, address 0x29672a0 with label b and size 32.
40115924501: system.acc0_datapath: Receiving DMA response for node 9767, address 0x29672c0 with label b and size 32.
40115929501: system.acc0_datapath: Receiving DMA response for node 9767, address 0x29672e0 with label b and size 32.
40115934501: system.acc0_datapath: Receiving DMA response for node 9767, address 0x2967300 with label b and size 32.
40115939501: system.acc0_datapath: Receiving DMA response for node 9767, address 0x2967320 with label b and size 32.
40115939501: system.acc0_datapath: dmaCompleteCallback for node 9767.
40116325000: system.acc0_datapath: Scheduling DMA load operation with node id 12617 with delay 1536000
40117861000: system.acc0_datapath: Adding DMA node 12617 to DMA issue queue.
40117861000: system.acc0_datapath: issueDmaRequest: src_addr: 0x2947d60, dst_addr: 0x2968340, size: 4096
40117861000: system.acc0_datapath: DMA Accesses: array label b
40117861000: system.acc0_datapath: Increment the dmaLoad accesses of partition b with size 4096. 
40117914501: system.acc0_datapath: Receiving DMA response for node 12617, address 0x2968340 with label b and size 32.
40117919501: system.acc0_datapath: Receiving DMA response for node 12617, address 0x2968360 with label b and size 32.
40117924501: system.acc0_datapath: Receiving DMA response for node 12617, address 0x2968380 with label b and size 32.
40117929501: system.acc0_datapath: Receiving DMA response for node 12617, address 0x29683a0 with label b and size 32.
40117934501: system.acc0_datapath: Receiving DMA response for node 12617, address 0x29683c0 with label b and size 32.
40117939501: system.acc0_datapath: Receiving DMA response for node 12617, address 0x29683e0 with label b and size 32.
40117944501: system.acc0_datapath: Receiving DMA response for node 12617, address 0x2968400 with label b and size 32.
40117949501: system.acc0_datapath: Receiving DMA response for node 12617, address 0x2968420 with label b and size 32.
40117954501: system.acc0_datapath: Receiving DMA response for node 12617, address 0x2968440 with label b and size 32.
[...]
40691403501: system.acc0_datapath: Receiving DMA response for node 491, address 0x2960460 with label b and size 32.
40691408501: system.acc0_datapath: Receiving DMA response for node 491, address 0x2960480 with label b and size 32.
40691413501: system.acc0_datapath: Receiving DMA response for node 491, address 0x29604a0 with label b and size 32.
40691418501: system.acc0_datapath: Receiving DMA response for node 491, address 0x29604c0 with label b and size 32.
40691423501: system.acc0_datapath: Receiving DMA response for node 491, address 0x29604e0 with label b and size 32.
40691428501: system.acc0_datapath: Receiving DMA response for node 491, address 0x2960500 with label b and size 32.
40691433501: system.acc0_datapath: Receiving DMA response for node 491, address 0x2960520 with label b and size 32.
40691477001: system.acc0_datapath: Receiving DMA response for node 491, address 0x2960540 with label b and size 32.
40691482001: system.acc0_datapath: Receiving DMA response for node 491, address 0x2960560 with label b and size 32.
40691487001: system.acc0_datapath: Receiving DMA response for node 491, address 0x2960580 with label b and size 32.
40691492001: system.acc0_datapath: Receiving DMA response for node 491, address 0x29605a0 with label b and size 32.
40691497001: system.acc0_datapath: Receiving DMA response for node 491, address 0x29605c0 with label b and size 32.
40691502001: system.acc0_datapath: Receiving DMA response for node 491, address 0x29605e0 with label b and size 32.
40691507001: system.acc0_datapath: Receiving DMA response for node 491, address 0x2960600 with label b and size 32.
40691512001: system.acc0_datapath: Receiving DMA response for node 491, address 0x2960620 with label b and size 32.
40691517001: system.acc0_datapath: Receiving DMA response for node 491, address 0x2960640 with label b and size 32.
40691522001: system.acc0_datapath: Receiving DMA response for node 491, address 0x2960660 with label b and size 32.
40691527001: system.acc0_datapath: Receiving DMA response for node 491, address 0x2960680 with label b and size 32.
40691532001: system.acc0_datapath: Receiving DMA response for node 491, address 0x29606a0 with label b and size 32.
40691537001: system.acc0_datapath: Receiving DMA response for node 491, address 0x29606c0 with label b and size 32.
40691542001: system.acc0_datapath: Receiving DMA response for node 491, address 0x29606e0 with label b and size 32.
40691547001: system.acc0_datapath: Receiving DMA response for node 491, address 0x2960700 with label b and size 32.
40691552001: system.acc0_datapath: Receiving DMA response for node 491, address 0x2960720 with label b and size 32.
40691595501: system.acc0_datapath: Receiving DMA response for node 491, address 0x2960740 with label b and size 32.
40691600501: system.acc0_datapath: Receiving DMA response for node 491, address 0x2960760 with label b and size 32.
40691605501: system.acc0_datapath: Receiving DMA response for node 491, address 0x2960780 with label b and size 32.
40691610501: system.acc0_datapath: Receiving DMA response for node 491, address 0x29607a0 with label b and size 32.
40691615501: system.acc0_datapath: Receiving DMA response for node 491, address 0x29607c0 with label b and size 32.
40691620501: system.acc0_datapath: Receiving DMA response for node 491, address 0x29607e0 with label b and size 32.
40691625501: system.acc0_datapath: Receiving DMA response for node 491, address 0x2960800 with label b and size 32.
40691630501: system.acc0_datapath: Receiving DMA response for node 491, address 0x2960820 with label b and size 32.
40691635501: system.acc0_datapath: Receiving DMA response for node 491, address 0x2960840 with label b and size 32.
40691640501: system.acc0_datapath: Receiving DMA response for node 491, address 0x2960860 with label b and size 32.
40691645501: system.acc0_datapath: Receiving DMA response for node 491, address 0x2960880 with label b and size 32.
40691650501: system.acc0_datapath: Receiving DMA response for node 491, address 0x29608a0 with label b and size 32.
40691655501: system.acc0_datapath: Receiving DMA response for node 491, address 0x29608c0 with label b and size 32.
40691660501: system.acc0_datapath: Receiving DMA response for node 491, address 0x29608e0 with label b and size 32.
40691665501: system.acc0_datapath: Receiving DMA response for node 491, address 0x2960900 with label b and size 32.
40691670501: system.acc0_datapath: Receiving DMA response for node 491, address 0x2960920 with label b and size 32.
40691714001: system.acc0_datapath: Receiving DMA response for node 491, address 0x2960940 with label b and size 32.
40691719001: system.acc0_datapath: Receiving DMA response for node 491, address 0x2960960 with label b and size 32.
40691724001: system.acc0_datapath: Receiving DMA response for node 491, address 0x2960980 with label b and size 32.
40691729001: system.acc0_datapath: Receiving DMA response for node 491, address 0x29609a0 with label b and size 32.
40691734001: system.acc0_datapath: Receiving DMA response for node 491, address 0x29609c0 with label b and size 32.
40691739001: system.acc0_datapath: Receiving DMA response for node 491, address 0x29609e0 with label b and size 32.
40691744001: system.acc0_datapath: Receiving DMA response for node 491, address 0x2960a00 with label b and size 32.
40691749001: system.acc0_datapath: Receiving DMA response for node 491, address 0x2960a20 with label b and size 32.
40691754001: system.acc0_datapath: Receiving DMA response for node 491, address 0x2960a40 with label b and size 32.
40691759001: system.acc0_datapath: Receiving DMA response for node 491, address 0x2960a60 with label b and size 32.
40691764001: system.acc0_datapath: Receiving DMA response for node 491, address 0x2960a80 with label b and size 32.
40691769001: system.acc0_datapath: Receiving DMA response for node 491, address 0x2960aa0 with label b and size 32.
40691774001: system.acc0_datapath: Receiving DMA response for node 491, address 0x2960ac0 with label b and size 32.
40691779001: system.acc0_datapath: Receiving DMA response for node 491, address 0x2960ae0 with label b and size 32.
40691784001: system.acc0_datapath: Receiving DMA response for node 491, address 0x2960b00 with label b and size 32.
40691789001: system.acc0_datapath: Receiving DMA response for node 491, address 0x2960b20 with label b and size 32.
40691832501: system.acc0_datapath: Receiving DMA response for node 491, address 0x2960b40 with label b and size 32.
40691837501: system.acc0_datapath: Receiving DMA response for node 491, address 0x2960b60 with label b and size 32.
40691842501: system.acc0_datapath: Receiving DMA response for node 491, address 0x2960b80 with label b and size 32.
40691847501: system.acc0_datapath: Receiving DMA response for node 491, address 0x2960ba0 with label b and size 32.
40691852501: system.acc0_datapath: Receiving DMA response for node 491, address 0x2960bc0 with label b and size 32.
40691857501: system.acc0_datapath: Receiving DMA response for node 491, address 0x2960be0 with label b and size 32.
40691862501: system.acc0_datapath: Receiving DMA response for node 491, address 0x2960c00 with label b and size 32.
40691867501: system.acc0_datapath: Receiving DMA response for node 491, address 0x2960c20 with label b and size 32.
40691872501: system.acc0_datapath: Receiving DMA response for node 491, address 0x2960c40 with label b and size 32.
40691877501: system.acc0_datapath: Receiving DMA response for node 491, address 0x2960c60 with label b and size 32.
40691882501: system.acc0_datapath: Receiving DMA response for node 491, address 0x2960c80 with label b and size 32.
40691887501: system.acc0_datapath: Receiving DMA response for node 491, address 0x2960ca0 with label b and size 32.
40691892501: system.acc0_datapath: Receiving DMA response for node 491, address 0x2960cc0 with label b and size 32.
40691897501: system.acc0_datapath: Receiving DMA response for node 491, address 0x2960ce0 with label b and size 32.
40691902501: system.acc0_datapath: Receiving DMA response for node 491, address 0x2960d00 with label b and size 32.
40691907501: system.acc0_datapath: Receiving DMA response for node 491, address 0x2960d20 with label b and size 32.
40691951001: system.acc0_datapath: Receiving DMA response for node 491, address 0x2960d40 with label b and size 32.
40691956001: system.acc0_datapath: Receiving DMA response for node 491, address 0x2960d60 with label b and size 32.
40691961001: system.acc0_datapath: Receiving DMA response for node 491, address 0x2960d80 with label b and size 32.
40691966001: system.acc0_datapath: Receiving DMA response for node 491, address 0x2960da0 with label b and size 32.
40691971001: system.acc0_datapath: Receiving DMA response for node 491, address 0x2960dc0 with label b and size 32.
40691976001: system.acc0_datapath: Receiving DMA response for node 491, address 0x2960de0 with label b and size 32.
40691981001: system.acc0_datapath: Receiving DMA response for node 491, address 0x2960e00 with label b and size 32.
40691986001: system.acc0_datapath: Receiving DMA response for node 491, address 0x2960e20 with label b and size 32.
40691991001: system.acc0_datapath: Receiving DMA response for node 491, address 0x2960e40 with label b and size 32.
40691996001: system.acc0_datapath: Receiving DMA response for node 491, address 0x2960e60 with label b and size 32.
40692001001: system.acc0_datapath: Receiving DMA response for node 491, address 0x2960e80 with label b and size 32.
40692006001: system.acc0_datapath: Receiving DMA response for node 491, address 0x2960ea0 with label b and size 32.
40692011001: system.acc0_datapath: Receiving DMA response for node 491, address 0x2960ec0 with label b and size 32.
40692016001: system.acc0_datapath: Receiving DMA response for node 491, address 0x2960ee0 with label b and size 32.
40692021001: system.acc0_datapath: Receiving DMA response for node 491, address 0x2960f00 with label b and size 32.
40692026001: system.acc0_datapath: Receiving DMA response for node 491, address 0x2960f20 with label b and size 32.
40692069501: system.acc0_datapath: Receiving DMA response for node 491, address 0x2960f40 with label b and size 32.
40692074501: system.acc0_datapath: Receiving DMA response for node 491, address 0x2960f60 with label b and size 32.
40692079501: system.acc0_datapath: Receiving DMA response for node 491, address 0x2960f80 with label b and size 32.
40692084501: system.acc0_datapath: Receiving DMA response for node 491, address 0x2960fa0 with label b and size 32.
40692089501: system.acc0_datapath: Receiving DMA response for node 491, address 0x2960fc0 with label b and size 32.
40692094501: system.acc0_datapath: Receiving DMA response for node 491, address 0x2960fe0 with label b and size 32.
40692099501: system.acc0_datapath: Receiving DMA response for node 491, address 0x2961000 with label b and size 32.
40692104501: system.acc0_datapath: Receiving DMA response for node 491, address 0x2961020 with label b and size 32.
40692109501: system.acc0_datapath: Receiving DMA response for node 491, address 0x2961040 with label b and size 32.
40692114501: system.acc0_datapath: Receiving DMA response for node 491, address 0x2961060 with label b and size 32.
40692119501: system.acc0_datapath: Receiving DMA response for node 491, address 0x2961080 with label b and size 32.
40692124501: system.acc0_datapath: Receiving DMA response for node 491, address 0x29610a0 with label b and size 32.
40692129501: system.acc0_datapath: Receiving DMA response for node 491, address 0x29610c0 with label b and size 32.
40692134501: system.acc0_datapath: Receiving DMA response for node 491, address 0x29610e0 with label b and size 32.
40692139501: system.acc0_datapath: Receiving DMA response for node 491, address 0x2961100 with label b and size 32.
40692144501: system.acc0_datapath: Receiving DMA response for node 491, address 0x2961120 with label b and size 32.
40692188001: system.acc0_datapath: Receiving DMA response for node 491, address 0x2961140 with label b and size 32.
40692193001: system.acc0_datapath: Receiving DMA response for node 491, address 0x2961160 with label b and size 32.
40692198001: system.acc0_datapath: Receiving DMA response for node 491, address 0x2961180 with label b and size 32.
40692203001: system.acc0_datapath: Receiving DMA response for node 491, address 0x29611a0 with label b and size 32.
40692208001: system.acc0_datapath: Receiving DMA response for node 491, address 0x29611c0 with label b and size 32.
40692213001: system.acc0_datapath: Receiving DMA response for node 491, address 0x29611e0 with label b and size 32.
40692218001: system.acc0_datapath: Receiving DMA response for node 491, address 0x2961200 with label b and size 32.
40692223001: system.acc0_datapath: Receiving DMA response for node 491, address 0x2961220 with label b and size 32.
40692228001: system.acc0_datapath: Receiving DMA response for node 491, address 0x2961240 with label b and size 32.
40692233001: system.acc0_datapath: Receiving DMA response for node 491, address 0x2961260 with label b and size 32.
40692238001: system.acc0_datapath: Receiving DMA response for node 491, address 0x2961280 with label b and size 32.
40692243001: system.acc0_datapath: Receiving DMA response for node 491, address 0x29612a0 with label b and size 32.
40692248001: system.acc0_datapath: Receiving DMA response for node 491, address 0x29612c0 with label b and size 32.
40692253001: system.acc0_datapath: Receiving DMA response for node 491, address 0x29612e0 with label b and size 32.
40692258001: system.acc0_datapath: Receiving DMA response for node 491, address 0x2961300 with label b and size 32.
40692263001: system.acc0_datapath: Receiving DMA response for node 491, address 0x2961320 with label b and size 32.
40692263001: system.acc0_datapath: dmaCompleteCallback for node 491.
40692649000: system.acc0_datapath: Scheduling DMA load operation with node id 3341 with delay 384000
40693033000: system.acc0_datapath: Adding DMA node 3341 to DMA issue queue.
40693033000: system.acc0_datapath: issueDmaRequest: src_addr: 0x294b040, dst_addr: 0x2962340, size: 1024
40693033000: system.acc0_datapath: DMA Accesses: array label b
40693033000: system.acc0_datapath: Increment the dmaLoad accesses of partition b with size 1024. 
40693086501: system.acc0_datapath: Receiving DMA response for node 3341, address 0x2962340 with label b and size 32.
40693091501: system.acc0_datapath: Receiving DMA response for node 3341, address 0x2962360 with label b and size 32.
40693096501: system.acc0_datapath: Receiving DMA response for node 3341, address 0x2962380 with label b and size 32.
40693101501: system.acc0_datapath: Receiving DMA response for node 3341, address 0x29623a0 with label b and size 32.
40693106501: system.acc0_datapath: Receiving DMA response for node 3341, address 0x29623c0 with label b and size 32.
40693111501: system.acc0_datapath: Receiving DMA response for node 3341, address 0x29623e0 with label b and size 32.
40693116501: system.acc0_datapath: Receiving DMA response for node 3341, address 0x2962400 with label b and size 32.
40693121501: system.acc0_datapath: Receiving DMA response for node 3341, address 0x2962420 with label b and size 32.
40693126501: system.acc0_datapath: Receiving DMA response for node 3341, address 0x2962440 with label b and size 32.
40693131501: system.acc0_datapath: Receiving DMA response for node 3341, address 0x2962460 with label b and size 32.
40693136501: system.acc0_datapath: Receiving DMA response for node 3341, address 0x2962480 with label b and size 32.
40693141501: system.acc0_datapath: Receiving DMA response for node 3341, address 0x29624a0 with label b and size 32.
40693146501: system.acc0_datapath: Receiving DMA response for node 3341, address 0x29624c0 with label b and size 32.
40693151501: system.acc0_datapath: Receiving DMA response for node 3341, address 0x29624e0 with label b and size 32.
40693156501: system.acc0_datapath: Receiving DMA response for node 3341, address 0x2962500 with label b and size 32.
40693200001: system.acc0_datapath: Receiving DMA response for node 3341, address 0x2962520 with label b and size 32.
40693205001: system.acc0_datapath: Receiving DMA response for node 3341, address 0x2962540 with label b and size 32.
40693210001: system.acc0_datapath: Receiving DMA response for node 3341, address 0x2962560 with label b and size 32.
40693215001: system.acc0_datapath: Receiving DMA response for node 3341, address 0x2962580 with label b and size 32.
40693220001: system.acc0_datapath: Receiving DMA response for node 3341, address 0x29625a0 with label b and size 32.
40693225001: system.acc0_datapath: Receiving DMA response for node 3341, address 0x29625c0 with label b and size 32.
40693230001: system.acc0_datapath: Receiving DMA response for node 3341, address 0x29625e0 with label b and size 32.
40693235001: system.acc0_datapath: Receiving DMA response for node 3341, address 0x2962600 with label b and size 32.
40693240001: system.acc0_datapath: Receiving DMA response for node 3341, address 0x2962620 with label b and size 32.
40693245001: system.acc0_datapath: Receiving DMA response for node 3341, address 0x2962640 with label b and size 32.
40693250001: system.acc0_datapath: Receiving DMA response for node 3341, address 0x2962660 with label b and size 32.
40693255001: system.acc0_datapath: Receiving DMA response for node 3341, address 0x2962680 with label b and size 32.
40693260001: system.acc0_datapath: Receiving DMA response for node 3341, address 0x29626a0 with label b and size 32.
40693265001: system.acc0_datapath: Receiving DMA response for node 3341, address 0x29626c0 with label b and size 32.
40693270001: system.acc0_datapath: Receiving DMA response for node 3341, address 0x29626e0 with label b and size 32.
40693275001: system.acc0_datapath: Receiving DMA response for node 3341, address 0x2962700 with label b and size 32.
40693318501: system.acc0_datapath: Receiving DMA response for node 3341, address 0x2962720 with label b and size 32.
40693318501: system.acc0_datapath: dmaCompleteCallback for node 3341.
40693788000: system.acc0_datapath: Scheduling DMA store operation with node id 32438 with delay 12000
40693800000: system.acc0_datapath: Adding DMA node 32438 to DMA issue queue.
40693800000: system.acc0_datapath: issueDmaRequest: src_addr: 0x29703a0, dst_addr: 0x2943c40, size: 32
40693800000: system.acc0_datapath: DMA Accesses: array label results
40693800000: system.acc0_datapath: Increment the dmaStore accesses of partition results with size 32. 
40694090001: system.acc0_datapath: Receiving DMA response for node 32438, address 0x29703a0 with label results and size 32.
40694090001: system.acc0_datapath: dmaCompleteCallback for node 32438.
===============================
        Aladdin Results        
===============================
Running : ./outputs/nnet_fwd
Top level function: smv_matrix_multiply_transpose_nc_vec_fxp
Cycle : 4703 cycles
Upsampled Cycle : 0 cycles
Avg Power: 265.226 mW
Idle FU Cycles: 3800 cycles
Avg FU Power: 6.83377 mW
Avg FU Dynamic Power: 2.59665 mW
Avg FU leakage Power: 4.23713 mW
Avg MEM Power: 258.392 mW
Avg MEM Dynamic Power: 239.481 mW
Avg MEM Leakage Power: 18.911 mW
Total Area: 1.49786e+06 uM^2
FU Area: 357970 uM^2
MEM Area: 1.13989e+06 uM^2
Num of Multipliers (32-bit): 10
Num of Adders (32-bit): 132
Num of Bit-wise Operators (32-bit): 35
Num of Shifters (32-bit): 18
Num of Registers (32-bit): 521
===============================
        Aladdin Results        
===============================
40694092000: system.acc0_datapath: Accelerator completed.
40694092000: system.acc0_datapath: Elapsed host seconds 0.50.
40694092000: system.acc0_datapath: Sent finished signal.
40694104001: system.acc0_datapath: cacheRespCallback for control signal access: 0x1a8bc10
40694106000: system.acc0_datapath: Woken up the CPU thread context.
Exiting @ tick 40877456000 because exiting with last active thread context
